@<TRIPOS>MOLECULE
*****
 14 0 0 0 0
SMALL
GASTEIGER
 
@<TRIPOS>ATOM
      1 H    5.4940   0.0358   1.4758   H   0   UNL  -1.0000
      2 H    2.6395   0.1512   3.3962   H   0   UNL   0.1739
      3 H    3.0015   1.4090   3.0477   H   0   UNL   0.1739
      4 H    3.1931   2.0120   2.6393   H   0   UNL   0.2174
      5 H    2.6395   0.1512   3.3962   H   0   UNL   0.1739
      6 H    1.8921   0.5135   3.3243   H   0   UNL   0.3478
      7 H    1.6422  -0.5719   3.2638   H   0   UNL   0.1739
      8 H    2.6395   0.1512   3.3962   H   0   UNL   0.2609
      9 H    3.2175  -2.0731   2.5813   H   0   UNL   0.2174
     10 H    2.6395   0.1512   3.3962   H   0   UNL   0.3043
     11 H    4.6581  -0.0094   2.5727   H   0   UNL   0.2174
     12 H    3.6140   2.7419   1.6329   H   0   UNL   1.0000
     13 H    2.7989   2.9056   1.7354   H   0   UNL   0.2174
     14 H    3.6140   2.7419   1.6329   H   0   UNL   0.2609
