@<TRIPOS>MOLECULE
*****
 696 0 0 0 0
SMALL
GASTEIGER

@<TRIPOS>ATOM
      1 C     5.7825  -0.8147   4.5302   C3      1  UNL1    0.7136
      2 C     6.5351  -3.5560   2.8694   C3      2  UNL2    0.8169
      3 C     8.6367  -0.7298   2.9359   C3      3  UNL3    0.7277
      4 C     5.7825  -0.8147   4.5302   C3      2  UNL2    0.7136
      5 C     5.0478  -1.3557   4.3992   C3      2  UNL2    0.7371
      6 C     5.9993  -1.5703   4.4191   C3      2  UNL2    0.7136
      7 C     6.1651  -2.1161   4.2130   C3      2  UNL2    0.7230
      8 C     6.4104  -2.6932   3.8358   C3      4  UNL4    0.7418
      9 C     6.5969  -0.7602   4.4252   C3      4  UNL4    0.6995
     10 C     7.1882  -0.6441   4.2129   C3      4  UNL4    0.6995
     11 C     3.3964  -2.5197   2.8127   C3      2  UNL2    1.0000
     12 C     3.9381  -3.0588   2.8283   C3      4  UNL4    0.9671
     13 C     3.3964  -2.5197   2.8127   C2      2  UNL2    1.0000
     14 C     7.3335  -3.1182   2.9786   C2      4  UNL4    0.7746
     15 C     6.5351  -3.5560   2.8694   C3      2  UNL2    0.8169
     16 C     8.6367  -0.7298   2.9359   Car     2  UNL2    0.7277
     17 C     8.8020   0.7468   0.8718   C3      2  UNL2    0.8310
     18 C     8.6367  -0.7298   2.9359   C3      2  UNL2    0.7277
     19 C     8.9853  -1.1476   2.1115   C3      2  UNL2    0.7559
     20 C     7.7232   0.7723   3.4551   C3      2  UNL2    0.7418
     21 C     7.6442   0.1060   3.8286   C3      2  UNL2    0.7136
     22 C     5.6581  -3.2554   3.4165   C3      2  UNL2    0.8028
     23 C     8.1045  -1.4340   3.4889   C3      2  UNL2    0.7136
     24 C     7.7528  -2.1776   3.4770   C3      2  UNL2    0.7230
     25 C     7.3080  -1.5032   4.0580   C3      2  UNL2    0.7042
     26 C     8.8728  -1.8196   1.9531   C2      2  UNL2    0.7700
     27 C     9.1403  -0.4498   0.9979   C3      2  UNL2    0.7981
     28 C     9.0433  -1.8290   1.6411   C3      2  UNL2    0.7653
     29 C     8.6224  -0.0215  -1.3714   C3      2  UNL2    0.8451
     30 C     8.6279  -3.5606  -1.2547   C2      2  UNL2    0.7512
     31 C     6.6562  -3.8729   2.6149   C3      2  UNL2    0.8075
     32 C     8.6070  -3.0674   1.8434   C3      5  UNL5    0.7512
     33 C     6.8946  -4.5486   1.7663   C3      2  UNL2    0.7981
     34 C     6.5695  -4.9820   0.9504   C3      2  UNL2    0.8263
     35 C     6.8946  -4.5486   1.7663   C3      2  UNL2    0.7981
     36 C     8.4641  -4.1368  -0.1844   C2      2  UNL2    0.7512
     37 C     9.0433  -1.8290   1.6411   C2      2  UNL2    0.7653
     38 C     9.2805  -1.3188   1.0004   C2      2  UNL2    0.7700
     39 C     9.3122  -0.9006   0.4795   C3      2  UNL2    0.7793
     40 C     9.3120  -2.3043   0.8165   C3      2  UNL2    0.7418
     41 C     8.8951  -0.8103  -1.5807   C3      2  UNL2    0.7934
     42 C     9.0434  -1.9575  -1.5733   C3      2  UNL2    0.7559
     43 C     8.6224  -0.0215  -1.3714   C3      2  UNL2    0.8451
     44 C     7.3315  -4.3408  -1.7645   C3      2  UNL2    0.8263
     45 C     8.6279  -3.5606  -1.2547   C3      2  UNL2    0.7512
     46 C     8.3466  -3.3465  -1.9071   C3      2  UNL2    0.7700
     47 C     8.0594  -3.0195  -2.4045   C3      2  UNL2    0.7887
     48 C     7.2037  -2.1675  -3.1434   C3      2  UNL2    0.8592
     49 C     7.6801  -3.6568   2.3247   C2      2  UNL2    0.7700
     50 C     8.9541  -0.0271  -0.3750   C2      2  UNL2    0.8310
     51 C     9.0195  -3.3717  -0.3218   C3      6  UNL6    0.7371
     52 C     7.6883  -4.6289  -0.7445   C3      2  UNL2    0.7887
     53 C     7.2056  -4.9481  -0.0432   C3      2  UNL2    0.8075
     54 C     9.3851  -2.0223  -0.5815   C2      2  UNL2    0.7418
     55 C     6.3487  -0.7338  -3.2025   C1      2  UNL2    0.9624
     56 C     7.9411  -2.0259  -2.7848   C1      2  UNL2    0.8075
     57 C     8.4003  -2.4223  -2.3365   C3      2  UNL2    0.7746
     58 C     8.5113  -1.5829  -2.3128   C3      2  UNL2    0.7887
     59 C     7.0416  -2.9941  -2.9775   C3      2  UNL2    0.8685
     60 C     7.5412  -3.5622  -2.4334   C3      2  UNL2    0.8216
     61 C     3.1756  -3.5736   2.3512   C3      2  UNL2    0.9343
     62 C     5.1855  -4.0385   2.5256   C3      2  UNL2    0.8873
     63 C     5.3563  -4.5361   2.1572   C2      2  UNL2    0.8545
     64 C     5.5947  -5.2118   1.3087   C1      2  UNL2    0.8216
     65 C     5.2696  -5.6452   0.4928   C3      2  UNL2    0.8028
     66 C     5.5947  -5.2118   1.3087   C3      2  UNL2    0.8216
     67 C     6.1161  -5.3103   0.7148   C2      5  UNL5    0.8169
     68 C     6.4831  -5.2531   0.2781   C2      2  UNL2    0.8169
     69 C     6.8688  -5.0551  -0.1115   C2      2  UNL2    0.8263
     70 C     5.9405  -1.4205  -3.4559   C2      2  UNL2    0.9624
     71 C     4.5263  -5.4485  -1.9466   C3      2  UNL2    0.8263
     72 C     5.2946  -5.2796  -2.1769   C3      5  UNL5    0.8263
     73 C     6.0316  -5.0040  -2.2221   C2      5  UNL5    0.8310
     74 C     3.7054  -5.3870  -1.7052   C3      7  UNL7    0.8451
     75 C     3.7821  -5.0689  -2.3195   C3      2  UNL2    0.8685
     76 C     7.0467  -4.0097  -2.3647   C2      4  UNL4    0.8545
     77 C     6.7595  -3.6827  -2.8622   C2      2  UNL2    0.8638
     78 C     5.9038  -2.8307  -3.6010   C3      2  UNL2    0.8967
     79 C     3.8489  -5.6574  -0.9053   C3      2  UNL2    0.8169
     80 C     4.2976  -5.7796  -0.2648   C3      2  UNL2    0.8028
     81 C     4.4599  -5.6801   0.4693   C2      4  UNL4    0.8075
     82 C     3.4523  -5.5412  -0.1241   C2      4  UNL4    0.8263
     83 C     3.2690  -5.2929   0.6072   C3      8  UNL8    0.8357
     84 C     6.3884  -5.2921  -1.2022   C3      2  UNL2    0.8122
     85 C     5.4342  -5.6628  -1.1639   C3      2  UNL2    0.8028
     86 C     5.9057  -5.6113  -0.5009   C3      2  UNL2    0.8028
     87 C     6.6412  -2.6891  -3.2425   C2      2  UNL2    0.8967
     88 C     6.4308  -1.9801  -3.3538   C3      2  UNL2    0.9296
     89 C     2.0082  -2.6268   2.1699   C2      9  UNL9    0.8873
     90 C     4.7730  -0.4738  -3.6372   C3     10  UNL1    0.9390
     91 C     1.5937  -2.0482   2.0839   C3      2  UNL2    0.8216
     92 C     2.2321  -3.5270   1.7323   C2      2  UNL2    0.9155
     93 C     5.2633  -1.0333  -3.5351   C3     11  UNL1    0.9906
     94 C     2.0066  -1.3610   2.6972   C3      2  UNL2    0.8028
     95 C     2.7796  -1.8730   2.7663   C3      2  UNL2    0.9906
     96 C     2.5654   0.7253  -3.6563   C3      2  UNL2    0.3333
     97 C     3.6681   1.7233  -3.2838   C2      2  UNL2    0.3991
     98 C     2.7765   1.7468  -3.4880   C3      2  UNL2    0.1362
     99 C     3.6426   2.5405  -2.8893   C3      2  UNL2    0.2488
    100 C     1.6810   1.2208  -3.5257   C3      2  UNL2    -0.0057
    101 C    -0.6728  -1.9595  -2.7444   C3      2  UNL2    0.1033
    102 C     2.5507  -2.0608  -4.8363   C3      2  UNL2    0.5634
    103 C     0.8887  -3.2159   1.3433   C3     12  UNL1    0.6291
    104 C     1.7862  -4.9231   0.2603   C3     13  UNL1    0.7371
    105 C    -0.4306  -3.6948  -0.7344   C1     12  UNL1    0.2911
    106 C    -0.7469  -3.1343  -1.7300   C3      2  UNL2    0.1690
    107 C     0.1718  -4.4621  -0.7188   C2      2  UNL2    0.4460
    108 C     0.5934  -4.8906  -1.5999   C2      2  UNL2    0.4930
    109 C     4.4530  -0.6810  -3.8278   C3      2  UNL2    0.8920
    110 C     3.6535  -1.0629  -4.4638   C3      2  UNL2    0.6948
    111 C    -0.0228  -0.7395  -3.3451   C3      2  UNL2    0.1080
    112 C     1.8099  -0.0364  -4.0928   C3      2  UNL2    0.3380
    113 C    -0.6728  -1.9595  -2.7444   C2     13  UNL1    0.1033
    114 C    -0.3351  -2.9769  -3.1330   C2      2  UNL2    0.2535
    115 C     0.0809  -3.7363  -3.1857   C2      2  UNL2    0.3568
    116 C    -0.3057  -1.9382  -3.4053   C3      2  UNL2    0.1878
    117 C     0.0489  -2.1283  -3.8291   C2      2  UNL2    0.2629
    118 C     0.5165  -2.2758  -4.2154   C3      2  UNL2    0.3380
    119 C     1.0741  -2.5630  -4.4985   C3      2  UNL2    0.4178
    120 C     2.2393  -5.0908  -2.9545   C2     13  UNL1    0.6479
    121 C     3.0076  -4.9219  -3.1848   C3      2  UNL2    0.7277
    122 C     1.4184  -5.0293  -2.7132   C2      2  UNL2    0.5634
    123 C     1.4952  -4.7113  -3.3274   C3      2  UNL2    0.5540
    124 C     1.6760  -4.3671  -3.8036   C3     13  UNL1    0.5540
    125 C     1.8841  -3.8896  -4.2414   C3     14  UNL1    0.5587
    126 C     3.6168  -2.4730  -4.6089   C3     15  UNL1    0.7136
    127 C     0.4742  -2.6373   1.2573   C3      2  UNL2    0.5070
    128 C     1.9601  -4.4590   0.9148   C3      2  UNL2    0.8075
    129 C     1.6617  -3.7279   1.4124   C3      9  UNL9    0.7981
    130 C    -0.9130  -2.0877  -1.8273   C2      9  UNL9    0.0235
    131 C    -0.8917  -2.5541  -1.2176   C3      2  UNL2    0.0610
    132 C    -0.6772  -3.0307  -0.5765   C3      2  UNL2    0.1690
    133 C     1.5620  -5.2997  -1.9133   C3      2  UNL2    0.6056
    134 C     2.0107  -5.4219  -1.2727   C3      2  UNL2    0.6854
    135 C     2.1729  -5.3224  -0.5386   C3      9  UNL9    0.7418
    136 C     1.1654  -5.1835  -1.1320   C3      2  UNL2    0.5869
    137 C     0.9821  -4.9353  -0.4008   C3     16  UNL1    0.5915
    138 C     0.5251  -4.5660  -2.6623   C3      2  UNL2    0.4507
    139 C    -0.4082  -3.4899  -2.5568   C3      2  UNL2    0.2676
    140 C     0.0924  -4.4289  -1.9894   C3      2  UNL2    0.4038
    141 C    -0.3710  -3.8689  -1.9223   C3      2  UNL2    0.3005
    142 C     3.1473  -5.3051  -2.1718   C3      2  UNL2    0.7840
    143 C     2.7619  -1.0393  -4.6681   C3      2  UNL2    0.5540
    144 C     2.5313  -0.3198  -4.3597   C3      2  UNL2    0.4836
    145 C     2.9498   0.2085  -3.9263   C3      2  UNL2    0.5258
    146 C     3.6280  -0.2456  -4.0694   C3      2  UNL2    0.6948
    147 C     4.3543  -2.3315  -4.2504   C3      2  UNL2    0.8263
    148 C     4.1438  -1.6224  -4.3617   C3      2  UNL2    0.7840
    149 C     1.6664  -1.5653  -4.7058   C3      2  UNL2    0.4366
    150 C     0.8350  -1.5215  -4.3732   C3      2  UNL2    0.3333
    151 C     1.4106  -0.8555  -4.4386   C3      2  UNL2    0.3615
    152 C     0.4696  -0.9419  -3.9551   C3      2  UNL2    0.2300
    153 C     1.0301  -0.2918  -3.9650   C3      2  UNL2    0.2441
    154 C     1.7883  -2.7444  -4.6977   C3      2  UNL2    0.5023
    155 C     1.3908  -3.4059  -4.3676   C3      2  UNL2    0.4883
    156 C     0.7589  -3.7053  -3.8730   C3      2  UNL2    0.4319
    157 C     0.3911  -3.0520  -3.9414   C2      2  UNL2    0.3615
    158 C     2.6893  -3.4544  -4.5285   C3      2  UNL2    0.6291
    159 C     5.2107   3.9363   3.6690   C3      2  UNL2    0.4460
    160 C     2.0211   2.9291   3.6785   C3      2  UNL2    0.1408
    161 C     4.2533   1.2485   5.3449   C3      2  UNL2    0.4742
    162 C     4.6181   2.2240   5.1571   C3      2  UNL2    0.4507
    163 C     4.8215   2.8142   4.8655   C3      2  UNL2    0.4460
    164 C     3.4804   1.6524   5.1980   C3      2  UNL2    0.3991
    165 C     2.9517   2.0609   4.9131   C3      2  UNL2    0.3333
    166 C     4.2533   1.2485   5.3449   C3      2  UNL2    0.4742
    167 C     2.7596  -0.0217   4.7284   C3      2  UNL2    0.4742
    168 C     4.3572   0.4565   5.2787   C3      2  UNL2    0.5258
    169 C     4.6060  -0.0022   5.1394   C3      2  UNL2    0.5728
    170 C     4.7695  -0.4866   4.9028   C3      2  UNL2    0.6338
    171 C     4.9403  -0.9841   4.5344   C3      2  UNL2    0.7089
    172 C     4.2533   1.2485   5.3449   C3      2  UNL2    0.4742
    173 C     5.2957   1.2673   5.2067   C3      2  UNL2    0.5352
    174 C     5.9109   1.3308   4.9544   C3      2  UNL2    0.5775
    175 C     6.5227   1.2229   4.5493   C3      2  UNL2    0.6338
    176 C     5.2107   3.9363   3.6690   C3      2  UNL2    0.4460
    177 C     4.3126   3.9668   3.8336   C3      2  UNL2    0.3662
    178 C     3.7217   3.8615   3.8881   C3      2  UNL2    0.3146
    179 C     5.2107   3.9363   3.6690   C3      2  UNL2    0.4460
    180 C     5.9172   3.4904   3.8249   C3      2  UNL2    0.5164
    181 C     6.3385   3.1707   3.7957   C3      2  UNL2    0.5587
    182 C     5.8207   4.0686   2.8222   C3      2  UNL2    0.5164
    183 C     6.1658   3.9781   2.3256   C3      2  UNL2    0.5775
    184 C     5.2107   3.9363   3.6690   C3      2  UNL2    0.4460
    185 C     4.8835   4.3513   2.9140   C3      2  UNL2    0.4131
    186 C     4.6284   4.4823   2.4853   C3      2  UNL2    0.3897
    187 C     4.3551   4.5368   2.0323   C3      2  UNL2    0.3615
    188 C     3.9886   4.4905   1.5012   C3      2  UNL2    0.3099
    189 C     2.0211   2.9291   3.6785   C3      2  UNL2    0.1408
    190 C     1.5958   2.0359   3.7500   C3      2  UNL2    0.1408
    191 C     1.4568   1.4199   3.7350   C3      2  UNL2    0.1784
    192 C     1.4806   0.6653   3.7329   C3      2  UNL2    0.2723
    193 C     2.0211   2.9291   3.6785   C3      2  UNL2    0.1408
    194 C     1.9423   3.4047   2.7812   C2      2  UNL2    0.0282
    195 C     1.3828   2.5685   2.8397   C3      2  UNL2    -0.0457
    196 C     3.5070   4.0850   0.4684   C3      2  UNL2    0.2113
    197 C     3.5070   4.0850   0.4684   C3      2  UNL2    0.2113
    198 C     3.2150   2.9012   4.6301   C3      2  UNL2    0.3146
    199 C     6.1492   2.1956   4.6219   C3      2  UNL2    0.5634
    200 C     1.9456   1.0505   4.3646   C3      2  UNL2    0.3005
    201 C     2.3452   0.5570   4.6424   C3      2  UNL2    0.3850
    202 C     3.8311  -1.2648   4.2999   C3      2  UNL2    0.7042
    203 C     3.5326  -0.5337   4.7975   C3      2  UNL2    0.5728
    204 C     6.5265   0.4138   4.4446   C3      2  UNL2    0.6854
    205 C     5.8666  -0.2017   4.6718   C3      2  UNL2    0.6808
    206 C     5.7487   0.4581   4.9644   C3      2  UNL2    0.6150
    207 C     2.4830   3.8796   2.7299   C3      2  UNL2    0.1127
    208 C     3.4187   4.4031   2.1896   C3      2  UNL2    0.2300
    209 C     3.1620   4.1326   3.0499   C3      2  UNL2    0.2254
    210 C     6.8116   3.2966   2.8242   C3      2  UNL2    0.6338
    211 C     4.9550   4.4130   1.2770   C3      2  UNL2    0.4742
    212 C     2.8530  -1.7410   2.9844   C3      2  UNL2    0.9343
    213 C     6.4331   4.1821   1.4821   C3      2  UNL2    0.5915
    214 C     8.5498   1.3055   1.3738   C3      2  UNL2    0.8216
    215 C     8.1289   3.1130  -1.6387   C3      2  UNL2    0.6244
    216 C     5.6441   1.3793  -3.6381   C3      2  UNL2    0.6901
    217 C     6.4331   4.1821   1.4821   C3      2  UNL2    0.5915
    218 C     6.4331   4.1821   1.4821   C3      2  UNL2    0.5915
    219 C     7.1396   3.7362   1.6380   C3      2  UNL2    0.6526
    220 C     7.0431   4.3144   0.6353   C3      2  UNL2    0.5869
    221 C     7.3882   4.2239   0.1387   C3      2  UNL2    0.5915
    222 C     7.7736   3.9491  -0.5019   C3      2  UNL2    0.6009
    223 C     6.4331   4.1821   1.4821   C3      2  UNL2    0.5915
    224 C     6.1059   4.5971   0.7271   C3      2  UNL2    0.5258
    225 C     5.8508   4.7281   0.2985   C3      2  UNL2    0.4930
    226 C     5.5775   4.7826  -0.1546   C3      2  UNL2    0.4554
    227 C     5.2110   4.7364  -0.6857   C3      2  UNL2    0.4131
    228 C     8.5498   1.3055   1.3738   C3      2  UNL2    0.8216
    229 C     8.7870   1.8158   0.7331   C3      2  UNL2    0.7653
    230 C     8.8187   2.2339   0.2121   C3      2  UNL2    0.7230
    231 C     8.8185   0.8303   0.5492   C3      2  UNL2    0.8310
    232 C     7.4895   3.5916  -1.9578   C3      2  UNL2    0.5775
    233 C     6.5959   4.0274  -2.1083   C3      2  UNL2    0.5164
    234 C     8.4016   2.3243  -1.8480   C3      2  UNL2    0.6714
    235 C     8.5499   1.1770  -1.8406   C3      2  UNL2    0.7512
    236 C     8.1289   3.1130  -1.6387   C3      2  UNL2    0.6244
    237 C     7.5463   2.7591  -2.6296   C3      2  UNL2    0.6150
    238 C     6.7469   2.3772  -3.2656   C3      2  UNL2    0.6150
    239 C     4.7295   4.3308  -1.7185   C3      2  UNL2    0.3521
    240 C     4.7295   4.3308  -1.7185   C3      2  UNL2    0.3521
    241 C     4.9033   3.4037  -2.8946   C3      2  UNL2    0.4178
    242 C     4.1675   0.8771  -3.3003   C2      2  UNL2    0.7512
    243 C     4.6412   4.6489   0.0027   C3      2  UNL2    0.3709
    244 C     4.3844   4.3784   0.8631   C3      2  UNL2    0.3944
    245 C     8.4606   3.1075  -0.6423   C3      2  UNL2    0.6573
    246 C     8.2939   3.3882  -0.0031   C3      2  UNL2    0.6526
    247 C     5.7143   4.5130  -1.5594   C3      2  UNL2    0.4507
    248 C     7.0940   4.1412  -1.5027   C3      2  UNL2    0.5446
    249 C     6.1774   4.6588  -0.9098   C3      2  UNL2    0.4883
    250 C     6.9295   4.4342  -0.8500   C3      2  UNL2    0.5399
    251 C     8.8916   1.1123  -0.8489   C3      2  UNL2    0.7700
    252 C     5.8552   2.4008  -3.4698   C3      2  UNL2    0.5775
    253 C     5.6246   3.1203  -3.1615   C1     17  UNL1    0.5023
    254 C     6.0431   3.6486  -2.7281   C3      2  UNL2    0.4977
    255 C     6.7213   3.1945  -2.8712   C3     17  UNL1    0.5587
    256 C     7.4476   1.1086  -3.0522   C2     19  UNL1    0.7418
    257 C     7.9068   0.7122  -2.6038   C3     18  UNL1    0.7840
    258 C     7.2372   1.8177  -3.1635   C3      2  UNL2    0.6714
    259 C     8.0178   1.5517  -2.5802   C3      2  UNL2    0.7089
    260 C     4.7598   1.8748  -3.5075   C2      2  UNL2    0.5681
    261 C     3.9284   1.9186  -3.1750   C3      2  UNL2    0.4413
    262 C     4.5040   2.5846  -3.2404   C3      2  UNL2    0.4413
    263 C     4.1234   3.1483  -2.7668   C3      2  UNL2    0.3146
    264 C     4.8816   0.6957  -3.4995   C3      2  UNL2    0.8122
    265 C     1.2195   0.4607  -3.6520   C3      2  UNL2    0.1127
    266 C     1.0511   0.5758   3.1441   C3     19  UNL1    0.1878
    267 C     0.2782   0.9797   2.9972   C3      2  UNL2    -0.1029
    268 C     1.0511   0.5758   3.1441   C3      2  UNL2    0.1878
    269 C     1.1550  -0.2162   3.0778   C3      2  UNL2    0.3380
    270 C     1.4038  -0.6749   2.9386   C3      2  UNL2    0.4883
    271 C     1.5673  -1.1593   2.7020   C3      2  UNL2    0.6338
    272 C     1.0511   0.5758   3.1441   C3      2  UNL2    0.1878
    273 C     0.4549  -2.4015   1.4446   C3     20  UNL2    0.4695
    274 C     0.6289  -1.9375   2.0991   C3      2  UNL2    0.4366
    275 C    -0.2187  -1.5945   2.0899   C3      2  UNL2    0.1033
    276 C     0.3304  -1.2064   2.5967   C3      2  UNL2    0.2300
    277 C     0.1624   1.4146  -3.8235   C3     21  UNL2    -0.4114
    278 C    -0.0059   1.5296   2.9726   C3      2  UNL2    -0.2857
    279 C     0.3589   2.5051   2.7848   C3      2  UNL2    -0.3657
    280 C    -0.0059   1.5296   2.9726   C3      2  UNL2    -0.2857
    281 C    -0.0059   1.5296   2.9726   C3      2  UNL2    -0.2857
    282 C    -0.6000   0.7311  -3.6849   C3      2  UNL2    -0.4343
    283 C    -1.1483   0.9476  -3.6882   C3      2  UNL2    -0.5829
    284 C    -1.3167   1.0627   3.1079   C2      2  UNL2    -0.4857
    285 C    -0.9519   2.0382   2.9201   C1      2  UNL2    -0.5543
    286 C    -2.0896   1.4666   2.9610   C2      2  UNL2    -0.6857
    287 C    -1.3167   1.0627   3.1079   C3      2  UNL2    -0.4857
    288 C    -1.2128   0.2707   3.0417   C3      2  UNL2    -0.3943
    289 C    -0.9640  -0.1880   2.9024   C3      2  UNL2    -0.2971
    290 C    -0.8005  -0.6724   2.6658   C2      2  UNL2    -0.2114
    291 C    -0.6298  -1.1699   2.2974   C3      2  UNL2    -0.1029
    292 C    -1.3167   1.0627   3.1079   C3      2  UNL2    -0.4857
    293 C    -0.2743   1.0815   2.9697   C3      2  UNL2    -0.2743
    294 C    -1.8149  -0.8812  -3.0933   C2      2  UNL2    -0.4171
    295 C    -1.9108   0.2641  -3.5496   C3      2  UNL2    -0.5829
    296 C    -2.3083  -0.3974  -3.2195   C3      2  UNL2    -0.5943
    297 C    -1.0098  -0.4459  -3.3804   C3      2  UNL2    -0.2629
    298 C    -1.0780  -1.2447  -2.8796   C3      2  UNL2    -0.1429
    299 C     1.2359   5.6676   0.9816   C3      2  UNL2    -0.4000
    300 C     2.9317   4.5985  -2.1392   C3      2  UNL2    -0.1257
    301 C     0.4469   2.8647  -4.1386   C3      2  UNL2    -0.4800
    302 C     0.2785   2.9797   2.6575   C3      2  UNL2    -0.4514
    303 C     0.6434   3.9553   2.4698   C3      2  UNL2    -0.4229
    304 C     0.8467   4.5455   2.1782   C3      2  UNL2    -0.4114
    305 C    -0.4944   3.3837   2.5106   C3      2  UNL2    -0.6629
    306 C    -1.0231   3.7922   2.2257   C3      2  UNL2    -0.8114
    307 C     0.2785   2.9797   2.6575   C3      2  UNL2    -0.4514
    308 C     0.2785   2.9797   2.6575   C3      2  UNL2    -0.4514
    309 C     1.3209   2.9986   2.5193   C3      2  UNL2    -0.1771
    310 C     1.2359   5.6676   0.9816   C3      2  UNL2    -0.4000
    311 C     0.3378   5.6981   1.1462   C3      2  UNL2    -0.5429
    312 C     1.2359   5.6676   0.9816   C3      2  UNL2    -0.4000
    313 C     1.9424   5.2217   1.1375   C3     22  UNL2    -0.2571
    314 C     2.3637   4.9020   1.1084   C3     23  UNL2    -0.1486
    315 C     2.7507   4.4564   1.0846   C2      2  UNL2    -0.0114
    316 C     1.8459   5.7999   0.1348   C3      2  UNL2    -0.3200
    317 C     2.1910   5.7094  -0.3618   C1      2  UNL2    -0.2686
    318 C     2.5764   5.4346  -1.0024   C1      2  UNL2    -0.2057
    319 C     1.2359   5.6676   0.9816   C3      2  UNL2    -0.4000
    320 C     0.9087   6.0826   0.2266   C2      2  UNL2    -0.4629
    321 C     0.6536   6.2136  -0.2020   C3     24  UNL2    -0.4971
    322 C     0.3803   6.2681  -0.6551   C2      2  UNL2    -0.5314
    323 C     0.0138   6.2218  -1.1862   C1      2  UNL2    -0.5771
    324 C    -2.0325   5.1360   0.0939   C1      2  UNL2    -0.9886
    325 C     2.2923   5.0771  -2.4583   C3      2  UNL2    -0.2686
    326 C     1.3987   5.5128  -2.6088   C3      2  UNL2    -0.4057
    327 C     3.2044   3.8097  -2.3485   C3     25  UNL2    -0.0171
    328 C     2.9317   4.5985  -2.1392   C3      2  UNL2    -0.1257
    329 C     2.3491   4.2446  -3.1301   C3      2  UNL2    -0.2343
    330 C     1.5496   3.8627  -3.7661   C3      2  UNL2    -0.3486
    331 C    -0.4677   5.8163  -2.2190   C3     26  UNL2    -0.6571
    332 C    -1.1472   5.4280  -2.3947   C1     29  UNL2    -0.7714
    333 C    -1.6669   4.8718  -2.5940   C2      2  UNL2    -0.8971
    334 C    -0.4677   5.8163  -2.2190   C2      2  UNL2    -0.6571
    335 C    -0.2939   4.8892  -3.3951   C3      2  UNL2    -0.6571
    336 C    -1.0297   2.3625  -3.8008   C3      2  UNL2    -0.7886
    337 C     1.5130   2.4526  -3.9112   C3      2  UNL2    -0.2514
    338 C     2.1744   3.9269   1.9345   C3      2  UNL2    -0.0571
    339 C    -1.2845   5.8447  -0.7427   C3     27  UNL2    -0.7771
    340 C    -1.4918   5.6109   0.0426   C3      2  UNL2    -0.8343
    341 C    -0.5560   6.1343  -0.4978   C3      2  UNL2    -0.6629
    342 C    -0.8128   5.8639   0.3626   C3      2  UNL2    -0.7143
    343 C     3.2634   4.5929  -1.1428   C3      2  UNL2    -0.0114
    344 C     3.0967   4.8736  -0.5036   C3      2  UNL2    -0.0514
    345 C     2.8368   5.0279   0.1368   C3      2  UNL2    -0.0971
    346 C     0.5171   5.9985  -2.0599   C2      2  UNL2    -0.5200
    347 C     1.8968   5.6266  -2.0032   C3      2  UNL2    -0.3371
    348 C     0.9802   6.1443  -1.4103   C2      2  UNL2    -0.4571
    349 C     1.7323   5.9196  -1.3505   C2      2  UNL2    -0.3543
    350 C    -1.8759   5.2267  -1.7397   C3      2  UNL2    -0.9086
    351 C     0.6580   3.8862  -3.9703   C3     28  UNL2    -0.4914
    352 C     0.4274   4.6057  -3.6620   C3      2  UNL2    -0.5429
    353 C     0.8459   5.1341  -3.2286   C2      2  UNL2    -0.4857
    354 C     1.5241   4.6799  -3.3717   C3      2  UNL2    -0.3829
    355 C     2.2504   2.5941  -3.5527   C3      2  UNL2    -0.1371
    356 C     2.0400   3.3031  -3.6640   C3      2  UNL2    -0.2343
    357 C     2.8206   3.0371  -3.0807   C3      2  UNL2    -0.0629
    358 C    -0.3156   2.1812  -4.0000   C3      2  UNL2    -0.5943
    359 C     1.3509   1.6259  -3.7453   C2      2  UNL2    -0.1771
    360 C     0.5855   1.4712  -3.8308   C3     29  UNL2    -0.3200
    361 C    -2.2930   1.7555  -3.8352   C1      2  UNL2    -0.8286
    362 C    -2.4614   1.8705   2.9609   C3      2  UNL2    -0.7657
    363 C    -2.0966   2.8460   2.7731   C3      2  UNL2    -0.8000
    364 C    -1.8932   3.4363   2.4815   C2      2  UNL2    -0.8514
    365 C    -2.4614   1.8705   2.9609   C1      2  UNL2    -0.7657
    366 C    -2.4614   1.8705   2.9609   C3      2  UNL2    -0.7657
    367 C    -2.4021   4.5889   1.4496   C3      2  UNL2    -0.9600
    368 C    -2.9930   4.4836   1.5041   C3      2  UNL2    -0.9371
    369 C    -2.0863   5.1044   0.1014   C3      2  UNL2    -1.0000
    370 C    -3.2077   4.7071  -1.9156   C3      2  UNL2    -0.9486
    371 C    -3.2077   4.7071  -1.9156   C3      2  UNL2    -0.9486
    372 C    -3.0338   3.7800  -3.0917   C3      2  UNL2    -0.9657
    373 C    -3.2960   5.0251  -0.1944   C3      2  UNL2    -0.9314
    374 C    -3.5527   4.7547   0.6660   C3      2  UNL2    -0.9200
    375 C    -2.0819   2.7770  -3.6670   C3      2  UNL2    -0.9371
    376 C    -2.3125   3.4965  -3.3586   C1     17  UNL1    -0.9886
    377 C    -3.1774   2.2510  -3.7046   C3      2  UNL2    -0.8914
    378 C    -3.4332   2.9609  -3.4375   C3     30  UNL3    -0.9200
    379 C    -3.0555   1.0720  -3.6966   C3     31  UNL3    -0.8114
    380 C    -2.1544   0.3619  -3.5274   C3      2  UNL2    -0.6514
    381 C    -3.6573   1.4741  -3.7284   C3     32  UNL3    -0.8171
    382 C    -3.4609   2.5646   2.8800   C3      2  UNL2    -0.8171
    383 C    -3.2576   3.1548   2.5884   C3      2  UNL2    -0.8571
    384 C    -5.1273   2.4015   2.6359   C3      2  UNL2    -0.8457
    385 C    -3.7664   4.3074   1.5564   C3      2  UNL2    -0.8743
    386 C    -4.3573   4.2022   1.6109   C3     33  UNL3    -0.8057
    387 C    -3.7239   4.8774  -0.2449   C1     37  UNL3    -0.9086
    388 C    -4.0904   4.8312  -0.7760   C1     37  UNL3    -0.8629
    389 C    -6.1367   3.7453   0.5041   C3      2  UNL2    -0.7771
    390 C    -4.5720   4.4256  -1.8088   C3      2  UNL2    -0.8114
    391 C    -5.2514   4.0373  -1.9845   C3      2  UNL2    -0.7657
    392 C    -5.7712   3.4812  -2.1838   C3      2  UNL2    -0.7543
    393 C    -4.5720   4.4256  -1.8088   C3     34  UNL3    -0.8114
    394 C    -4.3982   3.4985  -2.9849   C3      2  UNL2    -0.8171
    395 C    -5.1340   0.9719  -3.3906   C3      2  UNL2    -0.8171
    396 C    -4.8641   3.2418   2.3529   C3     35  UNL3    -0.7829
    397 C    -5.5960   4.2202   0.4528   C1      2  UNL2    -0.7600
    398 C    -4.6603   4.7437  -0.0876   C1      2  UNL2    -0.8000
    399 C    -4.9170   4.4732   0.7728   C3      2  UNL2    -0.7771
    400 C    -3.6768   3.2151  -3.2518   C3      2  UNL2    -0.9086
    401 C    -4.5417   1.9696  -3.5978   C3      2  UNL2    -0.7771
    402 C    -5.3731   2.0134  -3.2653   C3      2  UNL2    -0.7714
    403 C    -4.7975   2.6794  -3.3307   C3      2  UNL2    -0.7714
    404 C    -5.7385   2.5930  -2.8471   C1      2  UNL2    -0.7657
    405 C    -5.1780   3.2431  -2.8571   C1      2  UNL2    -0.7600
    406 C    -4.4198   0.7905  -3.5898   C3      2  UNL2    -0.7943
    407 C    -3.5188   0.0805  -3.4206   C3      2  UNL2    -0.7886
    408 C    -4.5175   0.3968   3.3896   C3     36  UNL3    -0.9143
    409 C    -4.1527   1.3724   3.2018   C3      2  UNL2    -0.8629
    410 C    -4.5175   0.3968   3.3896   C3      2  UNL2    -0.9143
    411 C    -4.5175   0.3968   3.3896   C3      2  UNL2    -0.9143
    412 C    -5.0157  -1.5470  -2.8116   C3      2  UNL2    -0.9486
    413 C    -5.1116  -0.4017  -3.2679   C3      2  UNL2    -0.8857
    414 C    -4.2106  -1.1118  -3.0987   C3      2  UNL2    -0.8514
    415 C    -8.1579   2.1417   1.7271   C3      2  UNL2    -0.8571
    416 C    -5.7573   0.3461  -3.4027   C3      2  UNL2    -0.8343
    417 C    -5.9257   0.4611   3.3935   C2      2  UNL2    -0.9600
    418 C    -5.5609   1.4366   3.2057   C3      2  UNL2    -0.8857
    419 C    -5.3576   2.0268   2.9141   C3      2  UNL2    -0.8571
    420 C    -5.9257   0.4611   3.3935   C3      2  UNL2    -0.9600
    421 C    -5.9257   0.4611   3.3935   Car     2  UNL2    -0.9600
    422 C    -5.8664   3.1795   1.8822   C3      2  UNL2    -0.7943
    423 C    -6.4573   3.0742   1.9367   C3     37  UNL3    -0.7829
    424 C    -8.1579   2.1417   1.7271   C3      2  UNL2    -0.8571
    425 C    -8.1579   2.1417   1.7271   C3      2  UNL2    -0.8571
    426 C    -8.2367   2.6174   0.8298   C3      2  UNL2    -0.8229
    427 C    -7.8711   2.3532  -1.8581   C3      2  UNL2    -0.7886
    428 C    -6.4982   2.3706  -2.6591   C3      2  UNL2    -0.7714
    429 C    -7.2340  -0.1561  -3.0649   C2      2  UNL2    -0.8800
    430 C    -6.9641   2.1139   2.6787   C3      2  UNL2    -0.8286
    431 C    -7.6960   3.0922   0.7785   C2      2  UNL2    -0.7829
    432 C    -6.7603   3.6157   0.2381   C3      2  UNL2    -0.7714
    433 C    -7.0170   3.3453   1.0985   C3      2  UNL2    -0.7714
    434 C    -5.5462   1.3676  -3.2344   Car     2  UNL2    -0.8057
    435 C    -6.6417   0.8416  -3.2721   Car     2  UNL2    -0.8057
    436 C    -7.4731   0.8855  -2.9396   Car     2  UNL2    -0.8171
    437 C    -6.8975   1.5515  -3.0050   Car     2  UNL2    -0.7829
    438 C    -7.8385   1.4651  -2.5214   C3      2  UNL2    -0.8114
    439 C    -7.2780   2.1152  -2.5314   C3      2  UNL2    -0.7771
    440 C    -6.5198  -0.3375  -3.2640   C3      2  UNL2    -0.8686
    441 C    -5.6188  -1.0475  -3.0949   C3      2  UNL2    -0.9257
    442 C    -6.7943  -0.5864   3.6770   C3      2  UNL2    -0.9314
    443 C    -6.4295   0.3892   3.4892   C3      2  UNL2    -0.9371
    444 C    -7.5672  -0.1824   3.5301   C2      2  UNL2    -0.9029
    445 C    -6.7943  -0.5864   3.6770   C3      2  UNL2    -0.9314
    446 C    -6.6904  -1.3783   3.6108   C3      2  UNL2    -0.9314
    447 C    -6.4416  -1.8371   3.4715   C3      2  UNL2    -0.9371
    448 C    -6.2781  -2.3214   3.2349   C3      2  UNL2    -0.9314
    449 C    -6.1074  -2.8190   2.8665   C3      2  UNL2    -0.9200
    450 C    -6.7943  -0.5864   3.6770   C3      2  UNL2    -0.9314
    451 C    -5.7519  -0.5675   3.5388   C3      2  UNL2    -0.9771
    452 C    -8.1026  -1.2036  -2.7813   C3      2  UNL2    -0.8857
    453 C    -6.9374  -3.7314  -1.2372   C3      2  UNL2    -0.8914
    454 C    -6.1691  -3.5625  -1.4676   C3      2  UNL2    -0.9200
    455 C    -5.4321  -3.2869  -1.5128   C3      2  UNL2    -0.9543
    456 C    -7.2925  -2.5302  -2.5242   C3     42  UNL4    -0.9029
    457 C    -7.8327   1.0664   2.9622   C2     19  UNL1    -0.8857
    458 C    -5.2989  -1.3768   3.2965   C3     42  UNL4    -0.9943
    459 C    -6.0294  -3.9457  -0.4546   C3      2  UNL2    -0.8971
    460 C    -7.5103  -0.2059  -2.9885   C3      2  UNL2    -0.8800
    461 C    -7.3884  -1.3849  -2.9805   C3      2  UNL2    -0.8971
    462 C    -7.7859  -2.0464  -2.6504   C3      2  UNL2    -0.8914
    463 C    -5.7219  -1.9402  -2.7258   C3      2  UNL2    -0.9657
    464 C    -6.4874  -2.0950  -2.8113   C3      2  UNL2    -0.9314
    465 C    -5.8567  -2.8048  -2.2471   C3      2  UNL2    -0.9486
    466 C    -6.5556  -2.8937  -2.3105   C3     38  UNL3    -0.9257
    467 C    -1.1243  -2.7989  -0.9656   C3      2  UNL2    -0.0400
    468 C    -3.6146  -0.9936  -3.0816   C3      2  UNL2    -0.7943
    469 C    -3.7829  -0.8786   3.7145   C3     19  UNL1    -0.7543
    470 C    -3.4181   0.0969   3.5267   C1     29  UNL2    -0.7714
    471 C    -3.2148   0.6871   3.2351   C2      2  UNL2    -0.8057
    472 C    -4.5558  -0.4747   3.5676   C3      2  UNL2    -0.8857
    473 C    -3.7829  -0.8786   3.7145   C3     39  UNL3    -0.7543
    474 C    -5.2767  -2.1487   3.0980   C3      2  UNL2    -0.9543
    475 C    -3.6790  -1.6705   3.6482   C3      2  UNL2    -0.7029
    476 C    -3.4303  -2.1293   3.5090   C3      2  UNL2    -0.6457
    477 C    -3.2668  -2.6136   3.2724   C3      2  UNL2    -0.5943
    478 C    -3.0960  -3.1112   2.9040   C3      2  UNL2    -0.5429
    479 C    -3.7829  -0.8786   3.7145   C3      2  UNL2    -0.7543
    480 C    -2.7405  -0.8597   3.5763   C1      2  UNL2    -0.6229
    481 C    -4.3791  -3.8558   2.0150   C1     12  UNL1    -0.6914
    482 C    -1.5290  -2.9898   2.0026   C3     45  UNL4    -0.2514
    483 C    -1.1452  -2.3057   2.1325   C3     45  UNL4    -0.2000
    484 C    -2.8575  -3.7869   2.0554   C2      2  UNL2    -0.4629
    485 C    -3.1826  -4.2204   1.2396   C2      2  UNL2    -0.4857
    486 C    -2.8575  -3.7869   2.0554   C1     29  UNL2    -0.4629
    487 C    -2.3362  -3.8854   1.4616   C2      2  UNL2    -0.3600
    488 C    -1.9692  -3.8282   1.0249   C3      2  UNL2    -0.2800
    489 C    -1.5835  -3.6302   0.6353   C3     39  UNL3    -0.1886
    490 C    -1.2881  -3.3751   0.1047   C3      2  UNL2    -0.0914
    491 C    -3.9260  -4.0236  -1.1998   C3      2  UNL2    -0.6286
    492 C    -3.1577  -3.8547  -1.4301   C3      2  UNL2    -0.5143
    493 C    -2.4207  -3.5791  -1.4753   C3      2  UNL2    -0.3886
    494 C    -4.7469  -3.9621  -0.9585   C3      2  UNL2    -0.7657
    495 C    -4.6701  -3.6440  -1.5727   C3     39  UNL3    -0.7771
    496 C    -4.4894  -3.2999  -2.0489   C3      2  UNL2    -0.7657
    497 C    -4.2812  -2.8224  -2.4867   C3      2  UNL2    -0.7600
    498 C    -1.1243  -2.7989  -0.9656   C3      2  UNL2    -0.0400
    499 C    -4.2052  -3.3918   2.6695   C3      2  UNL2    -0.6857
    500 C    -5.0528  -3.0489   2.6604   C3      2  UNL2    -0.8514
    501 C    -4.5037  -2.6607   3.1671   C3      1  UNL1    -0.7714
    502 C    -2.0720  -2.8951   2.6138   C3      2  UNL2    -0.3886 
    503 C    -1.5098  -1.7133   2.8142   C3      3  UNL3    -0.3600 
    504 C    -2.1697  -2.3288   3.0414   C3      2  UNL2    -0.4457 
    505 C    -2.2875  -1.6690   3.3339   C3      2  UNL2    -0.5086 
    506 C    -4.6033  -4.2325  -0.1586   C3      2  UNL2    -0.7200 
    507 C    -4.1547  -4.3547   0.4820   C3      2  UNL2    -0.6343 
    508 C    -3.9924  -4.2552   1.2161   C3      4  UNL4    -0.6114 
    509 C    -0.7327  -2.6100  -0.0327   C3      4  UNL4    0.0798 
    510 C    -0.8935  -2.8497   0.7825   C3      4  UNL4    -0.0114 
    511 C    -2.0639  -3.8672  -0.4554   C3      2  UNL2    -0.2857 
    512 C    -3.0181  -4.2379  -0.4171   C3      4  UNL4    -0.4629 
    513 C    -2.5465  -4.1864   0.2459   C2      2  UNL2    -0.3771 
    514 C    -4.3770  -1.6771  -2.9430   C2      4  UNL4    -0.8457 
    515 C    -4.7745  -2.3386  -2.6129   C3      2  UNL2    -0.8686 
    516 C    -3.4760  -2.3872  -2.7738   Car     2  UNL2    -0.6629 
    517 C    -2.8454  -3.0970  -2.2096   C3      2  UNL2    -0.5086 
    518 C    -3.5442  -3.1859  -2.2730   C3      2  UNL2    -0.6229 
    519 C    -8.7045   1.9751   1.8632   C3      2  UNL2    -0.8229 
    520 C    -9.2815   1.2511   2.4237   C3      2  UNL2    -0.8000 
    521 C    -8.4114   1.4171   2.5928   C3      2  UNL2    -0.8457 
    522 C    -8.7004   0.7677   2.9701   C3      2  UNL2    -0.8343 
    523 C    -9.0464   0.0185  -2.6014   C3      2  UNL2    -0.8057 
    524 C    -9.3926   0.6478  -2.2310   C3      2  UNL2    -0.7886 
    525 C   -11.2900   0.1090   2.2898   C3      2  UNL2    -0.6286 
    526 C   -12.1130  -1.5853  -0.7481   C2      2  UNL2    -0.5714 
    527 C    -8.8894  -1.6866  -2.8399   C3      2  UNL2    -0.7714 
    528 C    -9.0577  -1.5716   3.9562   C3      2  UNL2    -0.6857 
    529 C    -8.6929  -0.5961   3.7684   C3      2  UNL2    -0.7600 
    530 C    -8.4896  -0.0059   3.4768   C2      2  UNL2    -0.8171 
    531 C    -9.8306  -1.1677   3.8093   C3      2  UNL2    -0.6571 
    532 C    -9.0577  -1.5716   3.9562   C3      5  UNL5    -0.6857 
    533 C   -10.5515  -2.8417   3.3397   C3      2  UNL2    -0.5771 
    534 C    -8.9538  -2.3635   3.8899   C3      2  UNL2    -0.6629 
    535 C    -8.7051  -2.8223   3.7506   C3      2  UNL2    -0.6629 
    536 C    -8.5416  -3.3066   3.5141   C2      2  UNL2    -0.6514 
    537 C    -8.3708  -3.8042   3.1457   C2      2  UNL2    -0.6457 
    538 C    -9.0577  -1.5716   3.9562   C2      2  UNL2    -0.6857 
    539 C    -8.0153  -1.5528   3.8179   C3      2  UNL2    -0.7886 
    540 C    -7.4002  -1.4892   3.5657   C3      2  UNL2    -0.8971 
    541 C    -9.5893   1.0415   2.4994   C3      2  UNL2    -0.7714 
    542 C   -11.2900   0.1090   2.2898   C3      2  UNL2    -0.6286 
    543 C   -11.8542  -1.4001   2.3463   C3      2  UNL2    -0.5771 
    544 C   -11.8305  -2.1548   2.3441   C3      2  UNL2    -0.5600 
    545 C   -11.2900   0.1090   2.2898   C3      2  UNL2    -0.6286 
    546 C   -11.3688   0.5847   1.3925   C3      2  UNL2    -0.6400 
    547 C   -11.9283  -0.2515   1.4510   C3      2  UNL2    -0.5943 
    548 C   -12.3180  -1.0985   0.7794   C3      2  UNL2    -0.5657 
    549 C   -11.4837  -3.3348   2.1522   C2      2  UNL2    -0.5371 
    550 C   -10.9387  -3.8674   2.2711   C2      2  UNL2    -0.5371 
    551 C    -9.6539  -4.5488   2.2567   C3      6  UNL6    -0.5600 
    552 C   -11.8707  -3.3206   1.2620   C3      2  UNL2    -0.5314 
    553 C   -12.1870  -2.7601   0.2664   C3      2  UNL2    -0.5429 
    554 C   -11.2684  -4.0878   1.2776   C2      2  UNL2    -0.5257 
    555 C   -10.8468  -4.5163   0.3965   C1      2  UNL2    -0.5371 
    556 C    -6.8038  -3.6828   2.2442   C1      2  UNL2    -0.8343 
    557 C    -8.1323  -4.4799   2.2971   C3      2  UNL2    -0.6400 
    558 C    -8.4574  -4.9134   1.4813   C3      2  UNL2    -0.6114 
    559 C    -8.1323  -4.4799   2.2971   C3      2  UNL2    -0.6400 
    560 C   -11.0032   0.3205  -1.2954   C3      2  UNL2    -0.6743 
    561 C   -11.4629  -0.3652  -1.3488   C3      2  UNL2    -0.6286 
    562 C   -12.1130  -1.5853  -0.7481   C3      2  UNL2    -0.5714 
    563 C   -11.7753  -2.6026  -1.1366   C2      2  UNL2    -0.5714 
    564 C   -11.3592  -3.3621  -1.1893   C1      2  UNL2    -0.5657 
    565 C   -11.7458  -1.5640  -1.4089   C3      2  UNL2    -0.5943 
    566 C    -9.2008  -4.7166  -0.9581   C3      2  UNL2    -0.6000 
    567 C    -8.4325  -4.5477  -1.1885   C2      5  UNL5    -0.6571 
    568 C    -7.6955  -4.2721  -1.2336   C2      2  UNL2    -0.7371 
    569 C   -10.0217  -4.6551  -0.7168   C2      2  UNL2    -0.5657 
    570 C    -9.9449  -4.3370  -1.3310   C2      2  UNL2    -0.5886 
    571 C    -9.7642  -3.9929  -1.8072   C3      2  UNL2    -0.6114 
    572 C    -9.5560  -3.5154  -2.2450   C3      5  UNL5    -0.6400 
    573 C    -7.8233  -2.0988  -2.6125   C2      5  UNL5    -0.8914 
    574 C   -10.0961   0.0812   3.2414   C3      7  UNL7    -0.6857 
    575 C   -10.9659  -2.2631   3.2537   C3      2  UNL2    -0.5829 
    576 C    -9.4800  -4.0848   2.9112   C2      4  UNL4    -0.5771 
    577 C   -10.3276  -3.7419   2.9020   C2      2  UNL2    -0.5600 
    578 C    -9.7785  -3.3537   3.4088   C3      2  UNL2    -0.5886 
    579 C    -7.3468  -3.5881   2.8555   C3      2  UNL2    -0.7543 
    580 C    -7.4445  -3.0218   3.2831   C3      2  UNL2    -0.7771 
    581 C    -7.5624  -2.3620   3.5756   C2      4  UNL4    -0.8000 
    582 C   -10.6208   1.2934   0.5560   C2      4  UNL4    -0.7257 
    583 C   -10.8281   1.0595   1.3412   C3      8  UNL8    -0.6914 
    584 C   -10.1490   1.3126   1.6612   C3      2  UNL2    -0.7486 
    585 C   -12.3531  -1.7135   0.1691   C3      2  UNL2    -0.5543 
    586 C   -12.3319  -2.1799   0.7788   C3      2  UNL2    -0.5429 
    587 C   -12.1173  -2.6564   1.4199   C2      2  UNL2    -0.5371 
    588 C   -12.2267  -1.8494   1.5405   C3      2  UNL2    -0.5543 
    589 C   -11.6950  -0.0079  -0.6083   C2      9  UNL9    -0.6229 
    590 C   -11.2122   0.6754  -0.4411   C3     10  UNL1    -0.6686 
    591 C   -12.0682  -0.4144  -0.0647   C3      2  UNL2    -0.5943 
    592 C   -11.8624   0.1135   0.5079   C2      2  UNL2    -0.6114 
    593 C    -9.8781  -4.9255   0.0831   C3     11  UNL1    -0.5543 
    594 C    -9.4295  -5.0477   0.7237   C3      2  UNL2    -0.5657 
    595 C    -9.2672  -4.9482   1.4578   C3      2  UNL2    -0.5714 
    596 C   -10.2748  -4.8093   0.8644   C3      2  UNL2    -0.5429 
    597 C   -10.4581  -4.5610   1.5956   C2      2  UNL2    -0.5371 
    598 C   -10.9151  -4.1918  -0.6660   C3      2  UNL2    -0.5543 
    599 C   -11.8483  -3.1157  -0.5604   C3      2  UNL2    -0.5486 
    600 C   -11.3477  -4.0547   0.0070   C3      2  UNL2    -0.5371 
    601 C   -11.8112  -3.4946   0.0741   C3      2  UNL2    -0.5371 
    602 C    -7.3387  -4.5602  -0.2137   C3      2  UNL2    -0.7371 
    603 C    -8.2929  -4.9309  -0.1754   C3     12  UNL1    -0.6343 
    604 C    -9.7737  -1.1911  -2.7094   C3     13  UNL1    -0.7143 
    605 C   -10.6051  -1.1472  -2.3768   C1     12  UNL1    -0.6629 
    606 C   -10.0295  -0.4812  -2.4422   C3      2  UNL2    -0.7257 
    607 C   -10.9705  -0.5676  -1.9587   C2      2  UNL2    -0.6571 
    608 C   -10.4101   0.0825  -1.9686   C2      2  UNL2    -0.7143 
    609 C    -9.6518  -2.3701  -2.7013   C3      2  UNL2    -0.6800 
    610 C   -10.0493  -3.0316  -2.3713   C3      2  UNL2    -0.6343 
    611 C    -7.9854  -2.9254  -2.4466   C3      2  UNL2    -0.8057 
    612 C    -7.4858  -3.4935  -1.9026   C3      2  UNL2    -0.8343 
    613 C    -8.7508  -3.0802  -2.5321   C2     13  UNL1    -0.7143 
    614 C    -8.1202  -3.7900  -1.9679   C2      2  UNL2    -0.7314 
    615 C    -8.8190  -3.8789  -2.0313   C2      2  UNL2    -0.6686 
    616 C    -9.1117   1.9873   1.6076   C3      2  UNL2    -0.8057 
    617 C    -8.6284   2.6958   0.0621   C2      2  UNL2    -0.7886 
    618 C    -8.9791   2.3308  -1.1371   C3      2  UNL2    -0.7657 
    619 C    -9.7445   1.4830  -1.6081   C3      2  UNL2    -0.7429 
    620 C    -8.9791   2.3308  -1.1371   C2     13  UNL1    -0.7657 
    621 C    -9.6655   2.3452   0.3621   C3      2  UNL2    -0.7371 
    622 C   -10.2033   1.8303  -0.5596   C2      2  UNL2    -0.7143 
    623 C     8.3291   0.7943   2.8748   C3      2  UNL2    0.7418 
    624 C     8.6731  -0.0828   2.8280   C3     13  UNL1    0.7277 
    625 C     8.5390   1.2007   1.8260   C3     14  UNL1    0.7934 
    626 C     4.1648  -2.5664   3.6499   C3     15  UNL1    0.8169 
    627 C     5.4487  -2.2099   4.1861   C3      2  UNL2    0.7418 
    628 C     5.4487  -2.2099   4.1861   C3      2  UNL2    0.7418 
    629 C     4.1648  -2.5664   3.6499   C3      9  UNL9    0.8169 
    630 C     8.8401  -3.2605   1.3047   C2      9  UNL9    0.7418 
    631 C     8.6239  -3.9850   0.0700   C3      2  UNL2    0.7465 
    632 C     7.3740  -4.5916   1.4118   C3      2  UNL2    0.7746 
    633 C     8.2080  -4.2363   1.2067   C3      2  UNL2    0.7371 
    634 C     8.6239  -3.9850   0.0700   C3      2  UNL2    0.7465 
    635 C     8.0151  -0.3672  -2.4903   C3      9  UNL9    0.8404 
    636 C     6.8605  -0.4779  -3.0710   C3      2  UNL2    0.9155 
    637 C     7.6738  -1.3256  -2.9355   C3     16  UNL1    0.8357 
    638 C     3.3048  -4.4764   1.9731   C3      2  UNL2    0.8498 
    639 C     4.5887  -4.1199   2.5093   C3      2  UNL2    0.8826 
    640 C     4.5887  -4.1199   2.5093   C3      2  UNL2    0.8826 
    641 C     3.3048  -4.4764   1.9731   C3      2  UNL2    0.8498 
    642 C     4.1648  -5.3915   1.1875   C3      2  UNL2    0.8122 
    643 C     4.6087  -4.6587  -3.0404   C3      2  UNL2    0.8592 
    644 C     4.8840  -3.4857  -3.7067   C3      2  UNL2    0.8920 
    645 C     5.5442  -4.2646  -3.2814   C3      2  UNL2    0.8404 
    646 C     3.7257  -4.7960  -3.0218   C3      2  UNL2    0.8263 
    647 C     4.3966  -3.7651  -3.7450   C3      2  UNL2    0.8638 
    648 C     3.5111  -3.9930  -4.1427   C3      2  UNL2    0.7230 
    649 C     0.5355  -0.1239  -3.5518   C3      2  UNL2    0.1127 
    650 C     0.6815  -4.0028   0.8427   C3      2  UNL2    0.5540 
    651 C     0.6815  -4.0028   0.8427   C3      2  UNL2    0.5540 
    652 C    -0.2539  -3.7346  -0.1935   C3      2  UNL2    0.3333 
    653 C     0.5507  -4.6747  -0.3127   C3      2  UNL2    0.5164 
    654 C     2.5919  -0.8112   4.2574   C3      2  UNL2    0.5540 
    655 C     2.5919  -0.8112   4.2574   C3      2  UNL2    0.5540 
    656 C     1.6565  -0.5430   3.2212   C3      2  UNL2    0.5070 
    657 C     2.4611  -1.4831   3.1020   C2      2  UNL2    0.8122 
    658 C     2.5292   4.0758   2.0507   C3      2  UNL2    0.0563 
    659 C     6.8546   2.5442   3.8980   C3      2  UNL2    0.6056 
    660 C     7.1986   1.6671   3.8512   C3      2  UNL2    0.6714 
    661 C     5.9250   0.3781  -3.4796   C3      2  UNL2    0.8498 
    662 C     7.0915   0.8264  -3.2470   C3      2  UNL2    0.7653 
    663 C     8.0463   2.9084   1.6770   C3      2  UNL2    0.6995 
    664 C     8.3903   2.0313   1.6302   C3      2  UNL2    0.7653 
    665 C     8.2563   3.3148   0.6283   C3      2  UNL2    0.6667 
    666 C     4.3860   4.2368  -1.7393   C3      2  UNL2    0.3005 
    667 C     3.6206   3.3891  -2.2103   C3      2  UNL2    0.1596 
    668 C     4.3860   4.2368  -1.7393   C3      2  UNL2    0.3005 
    669 C     3.6997   4.2513  -0.2402   C3      2  UNL2    0.2019 
    670 C    -0.4583  -2.5255   0.4556   C3      2  UNL2    0.1690 
    671 C    -1.6661   4.5884   1.4310   C3      2  UNL2    -0.9600 
    672 C    -0.6734   5.2091   1.6328   C3      2  UNL2    -0.6914 
    673 C    -1.6661   4.5884   1.4310   C3      2  UNL2    -0.9600 
    674 C    -1.4290   4.3508  -3.3101   C3      2  UNL2    -0.8571 
    675 C    -0.8003   3.6426  -3.9270   C3      2  UNL2    -0.7257 
    676 C    -2.3645   5.0402  -1.5292   C3      2  UNL2    -0.9714 
    677 C    -5.6041   4.3754  -0.1976   C3      2  UNL2    -0.7486 
    678 C    -6.1419   3.8605  -1.1193   C3      2  UNL2    -0.7543 
    679 C    -6.4731   3.7046  -0.2196   C3      2  UNL2    -0.7771 
    680 C    -6.8238   3.3395  -1.4188   C3      2  UNL2    -0.7657 
    681 C    -6.8238   3.3395  -1.4188   C3      2  UNL2    -0.7657 
    682 C    -7.5101   3.3540   0.0804   C3      2  UNL2    -0.7714 
    683 C    -8.0480   2.8390  -0.8413   C3      2  UNL2    -0.7886 
    684 C    -5.7220  -3.7629   1.5641   C3      2  UNL2    -0.8800 
    685 C    -1.5865  -2.3859  -2.0631   C3      2  UNL2    -0.2343 
    686 C    -1.9657  -1.3866  -2.6534   C3      2  UNL2    -0.4457 
    687 C    -2.4720  -2.6138  -2.4607   C3      2  UNL2    -0.4571 
    688 C    -2.0183  -0.6862   3.3347   C3      2  UNL2    -0.5200 
    689 C    -7.7922  -4.6649   1.8241   C3      2  UNL2    -0.6514 
    690 C    -6.9583  -4.3097   1.6190   C3      2  UNL2    -0.7543 
    691 C   -11.3307  -1.6989  -1.9765   C3      2  UNL2    -0.6057 
    692 C   -10.7285  -2.5663  -2.3196   C3      2  UNL2    -0.6114 
    693 C   -11.2595  -0.3573   2.7906   C3      2  UNL2    -0.6114 
    694 C   -10.2400  -1.0918   3.7073   C2      2  UNL2    -0.6343 
    695 C   -11.2595  -0.3573   2.7906   C3      2  UNL2    -0.6114 
    696 C   -11.2312  -1.5645   3.1752   C3      2  UNL2    -0.5829 

   
