@<TRIPOS>MOLECULE
*****
 926 0 0 0 0
SMALL
GASTEIGER

@<TRIPOS>ATOM
      1 C   -0.3240   6.1530  -3.1063   C3      1  UNL1   0.9571
      2 C    1.2600   8.3778  -1.6311   C3      2  UNL2   0.8429
      3 C    0.2303   8.7366  -1.7178   C3      3  UNL3   0.8000
      4 C    1.1913   6.5121  -2.7298   C3      2  UNL2   1.0000
      5 C    0.4447   4.6822  -3.3374   C3      2  UNL2   0.8714
      6 C    0.3803   4.0053   3.3925   C3      2  UNL2   0.6286
      7 C    0.6291   3.5465   3.2532   C3      2  UNL2   0.4857
      8 C   -0.4443   3.0151   2.9113   C3      4  UNL4   0.5000
      9 C    0.6559   5.7036  -3.1691   C3      4  UNL4   0.9571
     10 C   -0.4396   5.1777  -3.2068   C3      4  UNL4   1.0000
     11 C   -0.9764   2.4187  -2.9426   C3      2  UNL2   0.6571
     12 C   -1.8628   4.2810  -3.3975   C3      4  UNL4   0.9429
     13 C   -3.5248   3.1259   2.7821   C2      2  UNL2   0.8571
     14 C   -1.9272   3.6041   3.3324   C2      4  UNL4   0.7286
     15 C   -1.6785   3.1453   3.1931   C3      2  UNL2   0.6571
     16 C   -1.5150   2.6610   2.9565   Car     2  UNL2   0.5571
     17 C   -1.3442   2.1634   2.5881   C3      2  UNL2   0.4000
     18 C   -3.9393   3.7045   2.6961   C3      2  UNL2   0.8857
     19 C   -2.7518   2.6139   2.8512   C3      2  UNL2   0.7571
     20 C   -1.6517   5.3025  -3.2293   C3      2  UNL2   0.9714
     21 C   -2.7471   4.7765  -3.2669   C3      2  UNL2   0.9429
     22 C   -2.6252   3.5975  -3.2589   C3      2  UNL2   0.9286
     23 C   -1.7242   2.8874  -3.0897   C3      2  UNL2   0.8714
     24 C   -1.7924   2.0887  -2.5889   C3      2  UNL2   0.8000
     25 C   -3.1774   6.6272   3.5070   C3      2  UNL2   0.7571
     26 C   -3.3695   4.5447   3.3224   C2      2  UNL2   0.8000
     27 C   -1.5231   4.5641   3.7333   C3      2  UNL2   0.7286
     28 C   -1.3596   4.0798   3.4967   C3      2  UNL2   0.7286
     29 C   -4.1834   5.6169   2.9586   C3      2  UNL2   0.8000
     30 C   -3.7839   5.1233   3.2364   C2      2  UNL2   0.8000
     31 C   -2.5965   4.0327   3.3915   C3      2  UNL2   0.7857
     32 C   -5.6756   3.6634  -1.5873   C3      5  UNL5   0.9000
     33 C   -2.9573   3.6401  -3.2652   C3      2  UNL2   0.9143
     34 C   -4.7662   3.7250   2.2172   C3      2  UNL2   0.9000
     35 C   -4.4487   4.7674  -2.6257   C3      2  UNL2   0.9286
     36 C   -4.4709   2.5793  -2.6363   C2      2  UNL2   0.9000
     37 C   -2.3826   1.8869  -2.6365   C2      2  UNL2   0.8286
     38 C   -5.1067   4.5461   1.7280   C2      2  UNL2   0.9143
     39 C   -5.6428   4.5273   0.8959   C3      2  UNL2   0.9143
     40 C   -5.6990   4.4961  -1.2281   C3      2  UNL2   0.9000
     41 C   -5.2084   4.1205  -2.2131   C3      2  UNL2   0.9000
     42 C   -5.2352   3.0473  -2.1478   C3      2  UNL2   0.9000
     43 C   -3.6901   4.1883  -3.1255   C3      2  UNL2   0.9143
     44 C   -3.6956   3.1188  -3.1267   C3      2  UNL2   0.8857
     45 C   -2.6736   2.7674  -3.1214   C3      2  UNL2   0.8857
     46 C   -4.3440   2.8280   2.3537   C3      2  UNL2   0.9000
     47 C   -5.8879   4.4559  -0.1920   C3      2  UNL2   0.9143
     48 C   -4.5517   3.7852  -2.8101   C3      2  UNL2   0.9000
     49 C   -3.5789   2.1623  -2.8046   C2      2  UNL2   0.8857
     50 C    1.7747   4.3866  -3.3464   C2      2  UNL2   0.6143
     51 C    1.6063   4.5016   3.4497   C3      6  UNL6   0.6571
     52 C    1.6063   4.5016   3.4497   C3      2  UNL2   0.6571
     53 C    1.7102   3.7097   3.3834   C3      2  UNL2   0.3571
     54 C    1.6063   4.5016   3.4497   C2      2  UNL2   0.6571
     55 C    2.6487   4.5204   3.3115   C1      2  UNL2   0.4857
     56 C    3.2639   4.5839   3.0592   C1      2  UNL2   0.3857
     57 C    3.8757   4.4760   2.6541   C3      2  UNL2   0.2571
     58 C    3.6915   6.4239   1.9005   C3      2  UNL2   0.7857
     59 C    4.0785   5.9783   1.8768   C3      2  UNL2   0.6429
     60 C    2.7265   7.0347  -1.8166   C3      2  UNL2   0.9286
     61 C    4.1975   5.2048   2.1978   C3      2  UNL2   0.4429
     62 C    3.5022   5.4487   2.7267   C3      2  UNL2   0.6000
     63 C    3.2246   7.1485  -1.2111   C2      2  UNL2   0.8857
     64 C    1.9858   5.4081  -3.1782   C1      2  UNL2   0.8143
     65 C    1.7552   6.1276  -2.8698   C3      2  UNL2   0.9571
     66 C    2.1737   6.6559  -2.4364   C3      2  UNL2   0.9571
     67 C    2.8520   6.2018  -2.5795   C2      5  UNL5   0.8143
     68 C    1.0122   3.7031  -3.2078   C2      2  UNL2   0.5857
     69 C    2.1911   3.1964   3.3089   C2      2  UNL2   0.0143
     70 C    2.1911   3.1964   3.3089   C2      2  UNL2   0.0143
     71 C    2.2950   2.4045   3.2427   C3      2  UNL2   -0.2248
     72 C    2.1911   3.1964   3.3089   C3      5  UNL5   0.0143
     73 C    3.2335   3.2152   3.1707   C2      5  UNL5   -0.0930
     74 C    3.8487   3.2787   2.9184   C3      7  UNL7   -0.1318
     75 C    0.8828   2.5791  -3.1494   C3      2  UNL2   0.1571
     76 C    3.6865   2.4060   2.9284   C2      4  UNL4   -0.3333
     77 C    1.4751   3.5769  -3.3566   C2      2  UNL2   0.4000
     78 C    1.5970   2.3978  -3.3486   C3      2  UNL2   -0.0620
     79 C    1.1995   1.7363  -3.0185   C3      2  UNL2   -0.1783
     80 C    4.5497   2.8674   2.8018   C3      2  UNL2   -0.2713
     81 C    5.1649   2.9309   2.5496   C2      4  UNL4   -0.2868
     82 C    2.1991   2.2314  -3.5183   C2      4  UNL4   -0.1628
     83 C    2.7913   3.2291  -3.7255   C3      8  UNL8   -0.0078
     84 C    2.9132   2.0500  -3.7174   C3      2  UNL2   -0.2558
     85 C    4.6804   1.4681   2.9105   C3      2  UNL2   -0.5736
     86 C    5.2956   1.5316   2.6582   C3      2  UNL2   -0.5814
     87 C    2.3298   0.8320  -3.4096   C2      2  UNL2   -0.4729
     88 C    5.5339   2.3963   2.3257   C3      2  UNL2   -0.4264
     89 C    5.1334   0.6588   2.6681   C2      9  UNL9   -0.7364
     90 C    3.0439   0.6507  -3.6088   C3     10  UNL1   -0.5504
     91 C    2.6464  -0.0108  -3.2787   C3      2  UNL2   -0.6589
     92 C    2.3805   0.9301   3.4761   C2      2  UNL2   -0.5891
     93 C    2.7453   1.9056   3.2884   C3     11  UNL1   -0.3721
     94 C    1.6076   1.3340   3.3292   C3      2  UNL2   -0.4574
     95 C    2.3805   0.9301   3.4761   C3      2  UNL2   -0.5891
     96 C    2.3805   0.9301   3.4761   C3      2  UNL2   -0.5891
     97 C    3.4229   0.9489   3.3379   C2      2  UNL2   -0.6202
     98 C    4.0381   1.0124   3.0857   C3      2  UNL2   -0.6434
     99 C    0.5145   0.6001  -2.6991   C3      2  UNL2   -0.3488
    100 C    1.0722   0.3129  -2.9822   C3      2  UNL2   -0.4419
    101 C    1.6645   1.3106  -3.1894   C3      2  UNL2   -0.3178
    102 C    0.8331   1.3544  -2.8569   C3      2  UNL2   -0.2171
    103 C    1.7864   0.1315  -3.1814   C3     12  UNL1   -0.5426
    104 C    2.6874  -0.5785  -3.0122   C3     13  UNL1   -0.7907
    105 C    1.5793   1.9327   3.2711   C1     12  UNL1   -0.2946
    106 C    1.5793   1.9327   3.2711   C3      2  UNL2   -0.2946
    107 C    1.5793   1.9327   3.2711   C2      2  UNL2   -0.2946
    108 C    0.1769   1.6217  -2.5766   C2      2  UNL2   -0.0620
    109 C    5.5348   6.4815   0.8023   C3      2  UNL2   0.3286
    110 C    7.2307   5.4124  -2.3185   C3      2  UNL2   -0.0155
    111 C    4.7458   3.6786  -4.3179   C3      2  UNL2   -0.0620
    112 C    4.9423   4.7692   2.2905   C3      2  UNL2   0.1429
    113 C    5.1456   5.3594   1.9989   C2     13  UNL1   0.2429
    114 C    5.6199   3.8125   2.3400   C2      2  UNL2   -0.1240
    115 C    6.2351   3.8760   2.0878   C2      2  UNL2   -0.1318
    116 C    5.5348   6.4815   0.8023   C3      2  UNL2   0.3286
    117 C    4.6368   6.5120   0.9670   C2      2  UNL2   0.5571
    118 C    5.5348   6.4815   0.8023   C3      2  UNL2   0.3286
    119 C    6.2413   6.0356   0.9582   C3      2  UNL2   0.1714
    120 C    6.6626   5.7159   0.9291   C2     13  UNL1   0.0857
    121 C    7.0496   5.2703   0.9054   C3      2  UNL2   -0.0078
    122 C    6.1448   6.6138  -0.0444   C2      2  UNL2   0.2286
    123 C    6.4900   6.5233  -0.5411   C3      2  UNL2   0.1714
    124 C    6.8753   6.2485  -1.1817   C3     13  UNL1   0.1000
    125 C    5.5348   6.4815   0.8023   C3     14  UNL1   0.3286
    126 C    5.2076   6.8965   0.0474   C3     15  UNL1   0.4143
    127 C    4.9526   7.0275  -0.3813   C3      2  UNL2   0.4571
    128 C    4.6792   7.0820  -0.8344   C3      2  UNL2   0.5000
    129 C    7.8887   4.1151   0.0533   C3      9  UNL9   -0.1395
    130 C    7.9204   4.5333  -0.4676   C2      9  UNL9   -0.1008
    131 C    7.9202   3.1296  -0.1306   C3      2  UNL2   -0.2791
    132 C    6.5913   5.8910  -2.6375   C3      2  UNL2   0.0714
    133 C    5.6976   6.3267  -2.7880   C3      2  UNL2   0.1857
    134 C    7.5033   4.6236  -2.5278   C3      2  UNL2   -0.0853
    135 C    7.6516   3.4764  -2.5204   C3      9  UNL9   -0.2016
    136 C    7.2307   5.4124  -2.3185   C3      2  UNL2   -0.0155
    137 C    6.6481   5.0585  -3.3094   C3     16  UNL1   -0.0155
    138 C    5.8486   4.6766  -3.9454   C3      2  UNL2   -0.0155
    139 C    3.8312   6.6302  -2.3983   C3      2  UNL2   0.5714
    140 C    3.1517   6.2419  -2.5740   C3      2  UNL2   0.7286
    141 C    3.8312   6.6302  -2.3983   C3      2  UNL2   0.5714
    142 C    4.0050   5.7031  -3.5743   C3      2  UNL2   0.3286
    143 C    2.7115   3.4637  -3.6969   C3      2  UNL2   0.0857
    144 C    3.2692   3.1764  -3.9801   C3      2  UNL2   -0.0543
    145 C    6.6676   2.4144  -3.3516   C3      2  UNL2   -0.3411
    146 C    6.4734   4.7408   1.7552   C3      2  UNL2   -0.0310
    147 C    6.0729   3.0033   2.0977   C3      2  UNL2   -0.2946
    148 C    7.5623   5.4068  -1.3221   C3      2  UNL2   -0.0233
    149 C    7.3957   5.6875  -0.6829   C3      2  UNL2   0.0000
    150 C    7.1358   5.8418  -0.0425   C3      2  UNL2   0.0571
    151 C    4.8161   6.8124  -2.2392   C3      2  UNL2   0.3714
    152 C    6.1958   6.4405  -2.1825   C3      2  UNL2   0.1571
    153 C    5.2791   6.9582  -1.5896   C3      2  UNL2   0.3429
    154 C    6.0313   6.7335  -1.5298   C3      2  UNL2   0.2143
    155 C    7.9934   3.4116  -1.5286   C3      2  UNL2   -0.2248
    156 C    4.9569   4.7001  -4.1496   C3      2  UNL2   0.0571
    157 C    4.7264   5.4197  -3.8413   C2      2  UNL2   0.1857
    158 C    5.1449   5.9480  -3.4079   C3      2  UNL2   0.2000
    159 C    5.8231   5.4938  -3.5509   C3      2  UNL2   0.0857
    160 C    7.0085   3.0116  -3.2836   C3      2  UNL2   -0.2403
    161 C    6.3389   4.1171  -3.8432   C3      2  UNL2   -0.0853
    162 C    7.1195   3.8510  -3.2599   C3      2  UNL2   -0.1395
    163 C    3.8615   4.1741  -4.1873   C3      2  UNL2   0.0857
    164 C    3.0301   4.2180  -3.8548   C3      2  UNL2   0.2286
    165 C    3.6057   4.8840  -3.9202   C3      2  UNL2   0.2571
    166 C    2.6647   4.7976  -3.4366   C3      2  UNL2   0.5000
    167 C    3.2252   5.4477  -3.4466   C3      2  UNL2   0.4714
    168 C    3.9834   2.9951  -4.1792   C3      2  UNL2   -0.1240
    169 C    3.5859   2.3336  -3.8492   C3      2  UNL2   -0.2403
    170 C    7.5680   2.3536  -2.1412   C3      2  UNL2   -0.3876
    171 C    5.9572   0.7537   2.5173   C3      2  UNL2   -0.6667
    172 C    6.5724   0.8172   2.2651   C3      2  UNL2   -0.6279
    173 C    7.1841   0.7093   1.8600   C3      2  UNL2   -0.6202
    174 C    7.5680   2.3536  -2.1412   C3      2  UNL2   -0.3876
    175 C    6.9854   1.9997  -3.1320   C3      2  UNL2   -0.4186
    176 C    3.6065   0.1177  -3.8027   C3      2  UNL2   -0.6124
    177 C    6.8107   1.6820   1.9325   C3      2  UNL2   -0.5349
    178 C    7.8996   2.3481  -1.1448   C3      2  UNL2   -0.4109
    179 C    4.1988   1.1154  -4.0100   C3      2  UNL2   -0.4961
    180 C    3.9430   1.8253  -3.7428   C3      2  UNL2   -0.3953
    181 C    4.3207  -0.0637  -4.0019   C3      2  UNL2   -0.6047
    182 C    2.9235  -0.3713  -3.2456   C3      2  UNL2   -0.7287
    183 C    2.1533  -0.5032  -3.0488   C3      2  UNL2   -0.7054
    184 C    1.9850  -0.3882   3.7473   C3      2  UNL2   -0.7984
    185 C    2.3498   0.5873   3.5595   C3      2  UNL2   -0.6589
    186 C    1.9850  -0.3882   3.7473   C3      2  UNL2   -0.7984
    187 C    1.9850  -0.3882   3.7473   C3      2  UNL2   -0.7984
    188 C    3.0274  -0.3694   3.6091   C3      2  UNL2   -0.8605
    189 C    3.6425  -0.3059   3.3568   C3      2  UNL2   -0.8837
    190 C    4.2543  -0.4138   2.9517   C3      2  UNL2   -0.9302
    191 C    3.4804  -1.1786   3.3667   C3      2  UNL2   -1.0000
    192 C    1.3909  -1.1868  -2.9102   C3      2  UNL2   -0.6744
    193 C    2.2919  -1.8968  -2.7410   C3      2  UNL2   -0.8527
    194 C    0.8962  -1.0728  -2.8796   C2      2  UNL2   -0.5814
    195 C    1.0927   0.0178   3.7288   C3      2  UNL2   -0.6279
    196 C   -0.0450  -0.5538   3.7696   C3      2  UNL2   -0.5349
    197 C    1.7703  -0.9389   3.7783   C3      2  UNL2   -0.8605
    198 C    0.0119  -0.5773  -2.7490   C3      2  UNL2   -0.3953
    199 C    0.1338  -1.7563  -2.7410   C3      2  UNL2   -0.4806
    200 C    1.0348  -2.4664  -2.5718   C3      2  UNL2   -0.6977
    201 C    0.7739  -1.3266   4.1142   C3      2  UNL2   -0.6977
    202 C   -0.0892  -4.2460  -1.8992   C3      2  UNL2   -0.5194
    203 C   -0.1850  -3.1007  -2.3555   C3      2  UNL2   -0.4961
    204 C    0.7160  -3.8107  -2.1863   C3      2  UNL2   -0.6667
    205 C   -0.7765   1.6058   2.6617   C3      2  UNL2   -0.0775
    206 C   -1.3694  -1.2850  -2.8868   C3      2  UNL2   -0.0853
    207 C   -1.1729  -0.1945   3.7216   C3      2  UNL2   -0.2636
    208 C   -0.9696   0.3958   3.4300   C3      2  UNL2   -0.2558
    209 C   -2.3106  -0.7660   3.7624   C3      2  UNL2   -0.0310
    210 C   -0.3033  -1.6972  -2.6594   C3      2  UNL2   -0.4109
    211 C   -1.1583  -0.2635  -2.7185   C3      2  UNL2   -0.0698
    212 C   -0.4654  -2.5238  -2.4934   C3      2  UNL2   -0.4186
    213 C   -1.2308  -2.6786  -2.5790   C3      2  UNL2   -0.2093
    214 C   -0.6234  -1.4419   4.1408   C3      2  UNL2   -0.4419
    215 C   -0.4200  -0.8517   3.8492   C3      2  UNL2   -0.4806
    216 C   -0.6812  -3.9260  -2.1597   C3      2  UNL2   -0.3643
    217 C   -1.7546  -3.6062   4.8412   C3      2  UNL2   -0.2093
    218 C   -1.3898  -2.6307   4.6534   C3      2  UNL2   -0.2713
    219 C   -1.1865  -2.0405   4.3618   C3      2  UNL2   -0.3178
    220 C   -2.5275  -3.2023   4.6943   C3      2  UNL2   -0.1085
    221 C   -3.0563  -2.7938   4.4094   C3      2  UNL2   -0.0310
    222 C   -1.7546  -3.6062   4.8412   C3      2  UNL2   -0.2093
    223 C   -3.2483  -4.8764   4.2247   C3      2  UNL2   -0.0620
    224 C   -1.6507  -4.3982   4.7749   C3      2  UNL2   -0.2248
    225 C   -1.4020  -4.8569   4.6357   C3      2  UNL2   -0.2558
    226 C   -1.0677  -5.8388   4.0307   C3      2  UNL2   -0.2946
    227 C   -1.7546  -3.6062   4.8412   C3      2  UNL2   -0.2093
    228 C   -0.7122  -3.5874   4.7030   C3      2  UNL2   -0.3798
    229 C   -0.0970  -3.5239   4.4507   C3      2  UNL2   -0.5271
    230 C   -4.4121  -2.8188   3.2463   C3      2  UNL2   0.3571
    231 C   -4.5511  -3.4347   3.2313   C3      2  UNL2   0.2857
    232 C   -4.5274  -4.1894   3.2292   C3      2  UNL2   0.2000
    233 C   -4.1806  -5.3695   3.0372   C3      2  UNL2   0.0857
    234 C   -3.6355  -5.9021   3.1561   C3      2  UNL2   -0.0155
    235 C   -2.3508  -6.5835   3.1417   C3      2  UNL2   -0.1395
    236 C   -4.5676  -5.3553   2.1470   C3      2  UNL2   0.2429
    237 C   -3.9652  -6.1225   2.1626   C3      2  UNL2   0.0857
    238 C   -3.5437  -6.5510   1.2815   C3      2  UNL2   0.0571
    239 C   -0.8292  -6.5146   3.1821   C3      2  UNL2   -0.3178
    240 C   -1.1543  -6.9480   2.3663   C3      2  UNL2   -0.2713
    241 C   -0.8292  -6.5146   3.1821   C3      2  UNL2   -0.3178
    242 C   -0.3079  -6.6131   2.5883   C2      2  UNL2   -0.4031
    243 C   -0.3924  -6.3067  -0.3486   C3      2  UNL2   -0.3876
    244 C   -2.7186  -6.6898   0.1682   C3      2  UNL2   -0.0233
    245 C   -2.7930  -1.9535   4.1264   C3      2  UNL2   -0.0155
    246 C   -4.0623  -3.8042   3.8609   C3      2  UNL2   0.1000
    247 C   -3.6628  -4.2977   4.1387   C3      2  UNL2   -0.0078
    248 C   -2.1769  -6.1195   3.7962   C3      2  UNL2   -0.1628
    249 C   -3.0244  -5.7765   3.7871   C3      2  UNL2   -0.0853
    250 C   -2.4753  -5.3884   4.2938   C3      2  UNL2   -0.1395
    251 C   -4.8142  -4.6911   2.3049   C3      2  UNL2   0.3286
    252 C   -2.5750  -6.9601   0.9681   C3      2  UNL2   -0.0698
    253 C   -2.1264  -7.0824   1.6087   C1     17  UNL1   -0.1395
    254 C   -1.9641  -6.9829   2.3428   C3      2  UNL2   -0.1705
    255 C   -2.9717  -6.8440   1.7494   C3     17  UNL1   -0.0543
    256 C   -3.1549  -6.5957   2.4806   C2     19  UNL1   -0.0543
    257 C   -3.6120  -6.2265   0.2191   C3     18  UNL1   0.2143
    258 C   -4.0446  -6.0893   0.8920   C3      2  UNL2   0.2429
    259 C   -0.9897  -6.9656   0.7096   C3      2  UNL2   -0.2791
    260 C   -0.5182  -6.9141   1.3726   C2      2  UNL2   -0.3643
    261 C   -0.6823  -4.9601  -1.5616   C3      2  UNL2   -0.3488
    262 C   -0.1827  -5.5282  -1.0175   C3      2  UNL2   -0.4651
    263 C   -1.4477  -5.1148  -1.6471   C3      2  UNL2   -0.1628
    264 C    1.9152  -1.8479   4.2317   C3      2  UNL2   -0.8217
    265 C    0.5742  -3.0097   4.5641   C3      2  UNL2   -0.6357
    266 C    0.0454  -2.6012   4.2792   C3     19  UNL1   -0.6047
    267 C    1.6997  -4.6643   4.5055   C3      2  UNL2   -0.6512
    268 C    1.8632  -5.1487   4.2689   C3      2  UNL2   -0.6434
    269 C    3.6164  -3.4392   3.9155   C3      2  UNL2   -0.8217
    270 C    3.2430  -2.4665   3.9880   C3      2  UNL2   -0.8760
    271 C    0.9248  -5.9268   3.6660   C3      2  UNL2   -0.5581
    272 C    0.6263  -5.1957   4.1636   C3      2  UNL2   -0.5504
    273 C    2.9603  -4.8638   4.0379   C3     20  UNL2   -0.7132
    274 C    2.8425  -4.2040   4.3305   C3      2  UNL2   -0.7364
    275 C    0.3555  -4.8737  -1.6164   C3      2  UNL2   -0.5814
    276 C   -2.8736  -0.6897   3.7065   C3      2  UNL2   0.2000
    277 C   -2.5088   0.2858   3.5187   C3     21  UNL2   0.2143
    278 C   -2.3055   0.8760   3.2271   C3      2  UNL2   0.2714
    279 C   -3.6465  -0.2858   3.5596   C3      2  UNL2   0.5143
    280 C   -4.1753   0.1227   3.2747   C3      2  UNL2   0.6857
    281 C   -2.8736  -0.6897   3.7065   C3      2  UNL2   0.2000
    282 C   -2.8736  -0.6897   3.7065   C3      2  UNL2   0.2000
    283 C   -1.6025   0.1932  -2.7171   C3      2  UNL2   0.2000
    284 C   -2.4942   0.2168  -2.9214   C2      2  UNL2   0.5429
    285 C   -2.7247   0.9363  -2.6130   C1      2  UNL2   0.7571
    286 C   -1.6280   1.0105  -2.3227   C2      2  UNL2   0.4143
    287 C   -4.7535  -0.9694   3.1290   C3      2  UNL2   0.6714
    288 C   -5.4744  -2.6435   2.6595   C3      2  UNL2   0.5286
    289 C   -2.7095  -0.4904  -3.1477   C3      2  UNL2   0.4857
    290 C   -2.7462  -1.9005  -3.2928   C2      2  UNL2   0.3429
    291 C   -3.6012  -0.4669  -3.3519   C3      2  UNL2   0.5857
    292 C   -2.0088  -1.7590  -2.9342   C3      2  UNL2   0.1000
    293 C   -2.2192  -1.0499  -3.0455   C3      2  UNL2   0.2714
    294 C   -2.6968  -3.4083  -3.2991   C2      2  UNL2   0.2571
    295 C   -2.8649  -2.6923  -3.4359   C3      2  UNL2   0.3286
    296 C   -1.9809  -3.2307  -2.8750   C3      2  UNL2   0.0000
    297 C   -2.0848  -2.4519  -2.9760   C3      2  UNL2   0.0857
    298 C   -5.1827  -3.0879  -4.4193   C3      2  UNL2   0.4857
    299 C   -5.2472  -3.7648   2.3106   C3      2  UNL2   0.4714
    300 C   -4.9984  -4.2236   2.1713   C3      2  UNL2   0.4286
    301 C   -4.4257  -5.8812   0.7178   C3      2  UNL2   0.3714
    302 C   -4.4257  -5.8812   0.7178   C3      2  UNL2   0.3714
    303 C   -4.0800  -2.0899  -4.0468   C3      2  UNL2   0.4714
    304 C   -4.1167  -3.5001  -4.1919   C3      2  UNL2   0.4143
    305 C   -5.7733  -5.4861   1.3318   C3      2  UNL2   0.4429
    306 C   -6.6209  -5.1432   1.3227   C3      2  UNL2   0.4857
    307 C   -6.0718  -4.7550   1.8295   C3      2  UNL2   0.4571
    308 C   -4.9716  -2.0664  -4.2510   C3      2  UNL2   0.5000
    309 C   -4.1055  -1.2727  -3.6523   C3      2  UNL2   0.5429
    310 C   -3.3792  -3.3585  -3.8333   C3      2  UNL2   0.3571
    311 C   -2.9200  -3.7549  -3.3850   C3      2  UNL2   0.2857
    312 C   -3.5897  -2.6495  -3.9446   C3      2  UNL2   0.4143
    313 C   -6.0671  -2.5924  -4.2887   C3     22  UNL2   0.5286
    314 C   -4.7530  -6.7278  -0.1761   C3     23  UNL2   0.3286
    315 C   -6.4259  -6.7267  -2.8873   C2      2  UNL2   0.3857
    316 C   -3.4032  -5.7455  -2.8843   C3      2  UNL2   0.2571
    317 C   -5.5963  -4.1443  -4.5660   C1      2  UNL2   0.4571
    318 C   -6.1842  -5.8652   0.9058   C1      2  UNL2   0.4571
    319 C   -6.5111  -6.9750  -0.9285   C3      2  UNL2   0.3857
    320 C   -8.0180  -5.8951  -2.0668   C2      2  UNL2   0.4714
    321 C   -3.1857  -5.8903  -0.9287   C3     24  UNL2   0.2429
    322 C   -4.6718  -6.9825  -2.0687   C2      2  UNL2   0.3000
    323 C   -3.7349  -4.1131  -3.9288   C1      2  UNL2   0.3714
    324 C   -7.1100  -5.2050  -3.9372   C1      2  UNL2   0.4571
    325 C   -5.0216  -5.8975  -3.9374   C3      2  UNL2   0.3429
    326 C   -7.1153  -5.9017   0.4299   C3      2  UNL2   0.4857
    327 C   -7.2863  -6.4323  -0.4659   C3     25  UNL2   0.4429
    328 C   -8.0154  -5.9168  -1.0480   C3      2  UNL2   0.4857
    329 C   -5.3488  -6.4270   0.4590   C3      2  UNL2   0.3857
    330 C   -4.3846  -6.1167   0.4378   C3      2  UNL2   0.3571
    331 C   -5.5868  -6.9767  -0.4382   C3     26  UNL2   0.3571
    332 C   -3.9185  -6.4191  -0.4209   C1     29  UNL2   0.2857
    333 C   -4.6256  -6.9788  -1.0487   C2      2  UNL2   0.3000
    334 C   -8.3093  -5.0093  -2.5869   C2      2  UNL2   0.5143
    335 C   -7.8743  -4.7370  -3.4486   C3      2  UNL2   0.5000
    336 C   -6.5378  -6.9853  -2.0253   C3      2  UNL2   0.3857
    337 C   -7.2580  -6.4519  -2.5882   C3      2  UNL2   0.4143
    338 C   -5.6026  -6.9868  -2.5871   C3      2  UNL2   0.3429
    339 C   -6.8073  -6.1291  -3.4784   C3     27  UNL2   0.4143
    340 C   -5.7905  -6.4391  -3.5031   C3      2  UNL2   0.3571
    341 C   -3.0977  -5.7957  -2.0234   C3      2  UNL2   0.2286
    342 C   -3.8907  -6.4278  -2.5685   C3      2  UNL2   0.2571
    343 C   -2.8901  -4.9899  -2.6163   C3      2  UNL2   0.2429
    344 C   -3.3953  -4.9889  -3.4418   C3      2  UNL2   0.2857
    345 C   -4.0551  -5.8103  -3.5429   C3      2  UNL2   0.3000
    346 C   -5.3175  -3.2861  -4.4308   C2      2  UNL2   0.4857
    347 C   -4.6871  -4.1286  -4.4266   C3      2  UNL2   0.4143
    348 C   -6.3291  -3.5961  -4.4263   C2      2  UNL2   0.5000
    349 C   -6.3347  -4.6656  -4.4276   C2      2  UNL2   0.4571
    350 C   -5.3127  -5.0169  -4.4222   C3      2  UNL2   0.4000
    351 C   -6.3774  -6.5209   0.1928   C3     28  UNL2   0.4143
    352 C   -7.2986  -6.6556  -1.4373   C3      2  UNL2   0.4286
    353 C   -5.6999  -7.1753  -1.4527   C2      2  UNL2   0.3429
    354 C   -7.7326  -5.7174  -3.0044   C3      2  UNL2   0.4571
    355 C   -3.6929  -6.5077  -1.4973   C3      2  UNL2   0.2429
    356 C   -4.7288  -6.6436  -3.0125   C3      2  UNL2   0.3000
    357 C   -4.2432  -4.9469  -4.1250   C3      2  UNL2   0.3571
    358 C   -7.1908  -3.9991  -4.1110   C3      2  UNL2   0.5143
    359 C   -6.2180  -5.6220  -4.1054   C2      2  UNL2   0.4143
    360 C   -5.2329  -1.5830   3.0700   C3     29  UNL2   0.5857
    361 C   -4.0657   0.0918  -3.2874   C1      2  UNL2   0.6571
    362 C   -6.0576  -2.5732   2.5889   C3      2  UNL2   0.5286
    363 C   -4.9574   0.1154  -3.4916   C3      2  UNL2   0.6286
    364 C   -4.0912   0.9091  -2.8929   C2      2  UNL2   0.7714
    365 C   -5.9912  -1.8527  -4.1812   C1      2  UNL2   0.5286
    366 C   -5.8069  -2.9884   2.4094   C3      2  UNL2   0.5286
    367 C   -4.8884  -0.8548  -3.8087   C3      2  UNL2   0.5714
    368 C   -5.7801  -0.8312  -4.0129   C3      2  UNL2   0.5571
    369 C   -6.0106  -0.1117  -3.7046   C3      2  UNL2   0.6000
    370 C   -7.9000   2.2906   1.8853   C3      2  UNL2   0.6000
    371 C   -5.0996   2.1757   3.0723   C3      2  UNL2   0.7000
    372 C   -6.4406   1.0139   3.4048   C3      2  UNL2   0.5714
    373 C   -6.9694   1.4224   3.1199   C3      2  UNL2   0.5714
    374 C   -7.1614  -0.6602   2.9352   C3      2  UNL2   0.5571
    375 C   -5.3151  -0.6407   3.3462   C3      2  UNL2   0.6000
    376 C   -4.0101   0.6923   3.1612   C1     17  UNL1   0.7143
    377 C   -5.6084   3.3283   2.0404   C3      2  UNL2   0.8143
    378 C   -6.1993   3.2230   2.0949   C3     30  UNL3   0.7429
    379 C   -7.9000   2.2906   1.8853   C3     31  UNL3   0.6000
    380 C   -8.3252   1.3974   1.9568   C3      2  UNL2   0.5714
    381 C   -8.4642   0.7814   1.9418   C3     32  UNL3   0.5714
    382 C   -7.9000   2.2906   1.8853   C3      2  UNL2   0.6000
    383 C   -7.9788   2.7662   0.9880   C3      2  UNL2   0.6286
    384 C   -8.5382   1.9300   1.0465   C3      2  UNL2   0.5857
    385 C   -4.3966   1.4929  -2.8719   C3      2  UNL2   0.7857
    386 C   -6.4140   3.4465  -1.3249   C3     33  UNL3   0.8000
    387 C   -7.0935   3.0582  -1.5005   C1     37  UNL3   0.7143
    388 C   -7.6132   2.5020  -1.6999   C1     37  UNL3   0.6571
    389 C   -8.0729   1.8163  -1.7532   C3      2  UNL2   0.6286
    390 C   -6.4140   3.4465  -1.3249   C3      2  UNL2   0.8000
    391 C   -6.2402   2.5194  -2.5009   C3      2  UNL2   0.7286
    392 C   -6.7061   2.2627   2.8369   C3      2  UNL2   0.6143
    393 C   -3.7718   1.5571   2.8287   C3     34  UNL3   0.7714
    394 C   -7.9754   0.4120   2.5714   C3      2  UNL2   0.5571
    395 C   -7.5759  -0.0815   2.8492   C3      2  UNL2   0.5429
    396 C   -6.3884  -1.1722   3.0043   C3     35  UNL3   0.5571
    397 C   -7.2308   3.4749   0.1515   C1      2  UNL2   0.7143
    398 C   -7.4381   3.2411   0.9367   C1      2  UNL2   0.6714
    399 C   -6.5023   3.7645   0.3963   C3      2  UNL2   0.8000
    400 C   -6.7590   3.4941   1.2567   C3      2  UNL2   0.7286
    401 C   -7.8222   2.8569  -0.8456   C3      2  UNL2   0.6571
    402 C   -8.4724   2.2950   0.1034   C3      2  UNL2   0.6143
    403 C   -5.2883   1.5164  -3.0762   C3      2  UNL2   0.7143
    404 C   -5.5188   2.2360  -2.7678   C1      2  UNL2   0.7571
    405 C   -5.1003   2.7643  -2.3344   C1      2  UNL2   0.8714
    406 C   -6.3837   0.9904  -3.1139   C3      2  UNL2   0.6571
    407 C   -6.6395   1.7003  -2.8467   C3      2  UNL2   0.6714
    408 C   -7.5805   1.6139  -2.3632   C3     36  UNL3   0.6429
    409 C   -7.0200   2.2640  -2.3731   C3      2  UNL2   0.6714
    410 C   -7.4544  -1.8202  -4.4895   C3      2  UNL2   0.4857
    411 C   -6.3517  -0.8223  -4.1170   C3      2  UNL2   0.5429
    412 C   -9.0485   0.7430  -2.7457   C3      2  UNL2   0.5286
    413 C   -9.5682   0.1869  -2.9450   C3      2  UNL2   0.5000
    414 C  -10.0280  -0.4989  -2.9984   C3      2  UNL2   0.4714
    415 C   -8.1952   0.2043  -3.7460   C3      2  UNL2   0.5286
    416 C  -10.3108  -1.6976  -3.0585   C3      2  UNL2   0.4429
    417 C   -9.9563  -1.8877  -3.4823   C2      2  UNL2   0.4429
    418 C   -9.4887  -2.0352  -3.8686   C3      2  UNL2   0.4571
    419 C   -8.9310  -2.3224  -4.1517   C3      2  UNL2   0.4571
    420 C   -8.5100  -4.4707  -2.9806   C3      2  UNL2   0.5000
    421 C   -6.3883  -2.2324  -4.2621   Car     2  UNL2   0.5286
    422 C   -9.3931   0.9259  -0.3084   C3      2  UNL2   0.5571
    423 C  -10.2600  -0.1415  -2.2580   C3     37  UNL3   0.4857
    424 C   -9.7772   0.5418  -2.0907   C3      2  UNL2   0.5143
    425 C  -10.6333  -0.5480  -1.7143   C3      2  UNL2   0.4714
    426 C  -10.4275  -0.0201  -1.1417   C3      2  UNL2   0.4857
    427 C   -7.2433  -0.7987  -4.3213   C3      2  UNL2   0.5143
    428 C   -7.4739  -0.0792  -4.0129   C3      2  UNL2   0.5286
    429 C   -7.0554   0.4491  -3.5795   C2      2  UNL2   0.5857
    430 C   -6.3772  -0.0050  -3.7226   C3      2  UNL2   0.5857
    431 C   -8.3388  -1.3247  -4.3590   C2      2  UNL2   0.4714
    432 C   -9.1701  -1.2808  -4.0264   C3      2  UNL2   0.4571
    433 C   -8.5945  -0.6148  -4.0918   C3      2  UNL2   0.4857
    434 C   -9.5355  -0.7012  -3.6083   Car     2  UNL2   0.4714
    435 C   -8.9751  -0.0511  -3.6182   Car     2  UNL2   0.5000
    436 C   -9.2463  -3.4647  -3.5262   Car     2  UNL2   0.4571
    437 C   -9.6141  -2.8114  -3.5946   Car     2  UNL2   0.4429
    438 C  -10.7079  -0.7306   1.7166   C3      2  UNL2   0.4286
    439 C   -8.4757  -2.4112   3.3830   C3      2  UNL2   0.4143
    440 C   -9.2486  -2.0073   3.2360   C3      2  UNL2   0.4143
    441 C   -9.7773  -1.5988   2.9511   C3      2  UNL2   0.4143
    442 C   -8.4757  -2.4112   3.3830   C3      2  UNL2   0.4143
    443 C   -9.9694  -3.6813   2.7665   C3      2  UNL2   0.3714
    444 C   -8.3718  -3.2031   3.3167   C2      2  UNL2   0.3857
    445 C   -8.1230  -3.6619   3.1774   C3      2  UNL2   0.3857
    446 C   -7.9595  -4.1462   2.9409   C3      2  UNL2   0.3857
    447 C   -7.7887  -4.6438   2.5725   C3      2  UNL2   0.3857
    448 C   -8.4757  -2.4112   3.3830   C3      2  UNL2   0.4143
    449 C   -7.4333  -2.3924   3.2447   C3      2  UNL2   0.4571
    450 C   -6.8181  -2.3289   2.9925   C3      2  UNL2   0.4857
    451 C   -9.0073   0.2019   1.9262   C3      2  UNL2   0.5286
    452 C  -10.7079  -0.7306   1.7166   C3      2  UNL2   0.4286
    453 C  -11.1332  -1.6237   1.7881   C3      2  UNL2   0.4000
    454 C  -11.2722  -2.2397   1.7731   C3      2  UNL2   0.3857
    455 C  -11.2484  -2.9944   1.7709   C3      2  UNL2   0.3714
    456 C  -10.7079  -0.7306   1.7166   C3     42  UNL4   0.4286
    457 C  -10.7867  -0.2549   0.8193   C2     19  UNL1   0.4571
    458 C  -11.3462  -1.0911   0.8778   C3     42  UNL4   0.4143
    459 C  -11.7359  -1.9382   0.2062   C3      2  UNL2   0.4000
    460 C  -10.9017  -4.1745   1.5790   C3      2  UNL2   0.3571
    461 C  -10.3566  -4.7070   1.6979   C3      2  UNL2   0.3571
    462 C   -9.0719  -5.3884   1.6835   C3      2  UNL2   0.3714
    463 C  -11.2887  -4.1602   0.6888   C3      2  UNL2   0.3714
    464 C  -11.6049  -3.5997  -0.3068   C3      2  UNL2   0.3714
    465 C  -10.6863  -4.9274   0.7043   C3      2  UNL2   0.3571
    466 C  -10.2647  -5.3560  -0.1767   C3     38  UNL3   0.3714
    467 C   -7.5503  -5.3195   1.7239   C3      2  UNL2   0.4143
    468 C   -7.5503  -5.3195   1.7239   C3      2  UNL2   0.4143
    469 C  -10.8809  -1.2049  -1.9220   C3     19  UNL1   0.4571
    470 C  -11.1932  -3.4423  -1.7099   C1     29  UNL2   0.4000
    471 C  -10.7772  -4.2017  -1.7625   C2      2  UNL2   0.4000
    472 C  -11.1637  -2.4036  -1.9821   C3      2  UNL2   0.4143
    473 C  -10.8092  -2.5937  -2.4059   C3     39  UNL3   0.4286
    474 C  -10.3416  -2.7412  -2.7922   C3      2  UNL2   0.4429
    475 C   -8.6188  -5.5562  -1.5313   C3      2  UNL2   0.4714
    476 C   -9.4396  -5.4947  -1.2900   C3      2  UNL2   0.4143
    477 C   -9.3629  -5.1767  -1.9042   C3      2  UNL2   0.4429
    478 C   -9.1821  -4.8325  -2.3804   C3      2  UNL2   0.4571
    479 C   -9.5140  -0.7584   2.6682   C3      2  UNL2   0.4571
    480 C  -10.7834  -2.6091   2.4027   C1      2  UNL2   0.3857
    481 C  -10.3838  -3.1027   2.6805   C1     12  UNL1   0.3714
    482 C   -8.8979  -4.9244   2.3380   C3     45  UNL4   0.3571
    483 C   -9.7455  -4.5815   2.3288   C3     45  UNL4   0.3571
    484 C   -9.1964  -4.1933   2.8356   C2      2  UNL2   0.3571
    485 C   -6.7648  -4.4277   2.2823   C2      2  UNL2   0.4286
    486 C   -6.2025  -3.2459   2.4827   C1     29  UNL2   0.5000
    487 C   -6.8624  -3.8614   2.7099   C2      2  UNL2   0.4286
    488 C   -6.9803  -3.2016   3.0024   C3      2  UNL2   0.4429
    489 C  -10.0387   0.4537  -0.0173   C3     39  UNL3   0.5143
    490 C  -10.2460   0.2199   0.7680   C3      2  UNL2   0.4857
    491 C   -9.5670   0.4730   1.0880   C3      2  UNL2   0.5286
    492 C  -11.7498  -3.0195   0.2056   C3      2  UNL2   0.3857
    493 C  -11.5352  -3.4961   0.8467   C3      2  UNL2   0.3714
    494 C  -11.6446  -2.6890   0.9673   C3      2  UNL2   0.3857
    495 C  -11.1129  -0.8475  -1.1816   C3     39  UNL3   0.4429
    496 C  -10.6301  -0.1642  -1.0143   C3      2  UNL2   0.4857
    497 C  -11.4862  -1.2540  -0.6379   C3      2  UNL2   0.4286
    498 C  -11.2804  -0.7261  -0.0653   C3      2  UNL2   0.4429
    499 C   -9.2961  -5.7651  -0.4901   C3      2  UNL2   0.4143
    500 C   -8.8474  -5.8873   0.1505   C3      2  UNL2   0.4143
    501 C   -8.6851  -5.7878   0.8845   C3      1  UNL1   0.4000
    502 C   -9.6927  -5.6489   0.2912   C3      2  UNL2   0.3857
    503 C   -9.8760  -5.4006   1.0224   C3      3  UNL3   0.3714
    504 C  -10.3330  -5.0314  -1.2392   C3      2  UNL2   0.4000
    505 C  -11.2662  -3.9553  -1.1336   C3      2  UNL2   0.3857
    506 C  -10.7656  -4.8943  -0.5662   C3      2  UNL2   0.3714
    507 C  -11.2291  -4.3342  -0.4991   C3      2  UNL2   0.3714
    508 C  -10.0992  -4.1706  -2.4499   C3      4  UNL4   0.4286
    509 C  -10.4670  -3.5174  -2.5182   C3      4  UNL4   0.4286
    510 C    5.3079   0.2022   2.7240   C3      4  UNL4   -0.7597
    511 C    5.4593  -2.5084   2.4696   C3      2  UNL2   -0.8450
    512 C    5.9855  -0.7545   2.7735   C3      4  UNL4   -0.7287
    513 C    6.6007  -0.6910   2.5213   C2      2  UNL2   -0.6744
    514 C    3.0772  -1.1033  -3.2635   C2      4  UNL4   -0.7597
    515 C    3.6349  -1.3906  -3.5466   C3      2  UNL2   -0.7054
    516 C    6.8390   0.1738   2.1887   Car     2  UNL2   -0.6589
    517 C    4.3490  -1.5719  -3.7458   C3      2  UNL2   -0.6589
    518 C    3.9515  -2.2334  -3.4157   C3      2  UNL2   -0.6977
    519 C    6.3460  -1.6852  -4.2494   C3      2  UNL2   -0.5116
    520 C    6.2815  -2.3621   2.4805   C3      2  UNL2   -0.7209
    521 C    6.5303  -2.8209   2.3412   C3      2  UNL2   -0.6899
    522 C    7.2200  -1.5514   2.4085   C3      2  UNL2   -0.6202
    523 C    7.8352  -1.4878   2.1562   C3      2  UNL2   -0.5736
    524 C    8.4470  -1.5958   1.7511   C3      2  UNL2   -0.5271
    525 C    8.8154  -2.9973   0.9648   C3      2  UNL2   -0.5039
    526 C    4.8694  -2.1874  -3.9116   C2      2  UNL2   -0.5969
    527 C    5.6794  -3.5140  -3.6545   C3      2  UNL2   -0.5504
    528 C    8.0735  -0.6231   1.8237   C3      2  UNL2   -0.5581
    529 C    8.4508  -2.4049   1.6464   C3      2  UNL2   -0.5271
    530 C    7.6730  -2.3606   2.1662   C2      2  UNL2   -0.5814
    531 C    5.4616  -1.1897  -4.1188   C3      2  UNL2   -0.5814
    532 C    5.5835  -2.3687  -4.1108   C3      5  UNL5   -0.5426
    533 C    5.1860  -3.0302  -3.7807   C3      2  UNL2   -0.5736
    534 C    4.5541  -3.3296  -3.2861   C3      2  UNL2   -0.6434
    535 C    4.1863  -2.6764  -3.3545   C3      2  UNL2   -0.6822
    536 C    7.2500  -2.9240  -3.8561   C2      2  UNL2   -0.4806
    537 C    6.4846  -3.0788  -3.9416   C2      2  UNL2   -0.5039
    538 C    4.3369  -3.4601   3.5565   C2      2  UNL2   -0.7907
    539 C    0.8133  -3.8724  -2.2282   C3      2  UNL2   -0.6589
    540 C    1.3710  -4.1597  -2.5113   C3      2  UNL2   -0.6357
    541 C    3.9137  -4.0696  -2.6217   C3      2  UNL2   -0.7054
    542 C    5.2704  -2.8393   2.6951   C3      2  UNL2   -0.8295
    543 C    4.5752  -2.5953   3.2240   C3      2  UNL2   -0.8605
    544 C    1.1319  -3.1181  -2.3860   C3      2  UNL2   -0.7287
    545 C    2.0852  -4.3410  -2.7105   C3      2  UNL2   -0.6357
    546 C    1.6877  -5.0025  -2.3804   C3      2  UNL2   -0.5969
    547 C    0.6879  -4.6486  -1.9542   C3      2  UNL2   -0.6047
    548 C    3.4299  -5.0752  -2.7831   C3      2  UNL2   -0.5891
    549 C    3.2615  -4.9602   4.0130   C2      2  UNL2   -0.6899
    550 C    3.2615  -4.9602   4.0130   C2      2  UNL2   -0.6899
    551 C    3.2615  -4.9602   4.0130   C3      6  UNL6   -0.6899
    552 C    4.3039  -4.9414   3.8747   C3      2  UNL2   -0.6357
    553 C    4.9191  -4.8779   3.6225   C3      2  UNL2   -0.6202
    554 C    5.5309  -4.9858   3.2174   C2      2  UNL2   -0.5969
    555 C    5.7337  -3.4835   2.4401   C1      2  UNL2   -0.7519
    556 C    1.3956  -5.2902  -2.1622   C1      2  UNL2   -0.5736
    557 C    1.9532  -5.5774  -2.4453   C3      2  UNL2   -0.5426
    558 C    3.8867  -7.9363  -1.1317   C3      2  UNL2   -0.4496
    559 C    2.5551  -7.3815  -1.7504   C3      2  UNL2   -0.4496
    560 C    2.7633  -6.9040  -2.1882   C3      2  UNL2   -0.4651
    561 C    5.1574  -4.0131   3.2899   C3      2  UNL2   -0.6977
    562 C    4.9724  -6.9767   2.9123   C3      2  UNL2   -0.4961
    563 C    5.5347  -5.7949   3.1127   C2      2  UNL2   -0.5504
    564 C    4.8748  -6.4104   3.3399   C1      2  UNL2   -0.5271
    565 C    4.7569  -5.7506   3.6324   C3      2  UNL2   -0.5581
    566 C    2.6674  -5.7588  -2.6445   C3      2  UNL2   -0.5271
    567 C    2.2699  -6.4202  -2.3145   C2      5  UNL5   -0.4884
    568 C    1.6380  -6.7196  -1.8198   C2      2  UNL2   -0.4729
    569 C    1.2702  -6.0664  -1.8882   C2      2  UNL2   -0.5039
    570 C    3.5684  -6.4688  -2.4753   C2      2  UNL2   -0.4961
    571 C    3.5002  -7.2675  -1.9745   C3      2  UNL2   -0.4651
    572 C   10.0157  -0.9479   0.0505   C3      5  UNL5   -0.4264
    573 C    9.5000   0.6453  -2.6431   C2      5  UNL5   -0.3721
    574 C    7.2922  -0.9602  -4.3389   C3      7  UNL7   -0.4574
    575 C    8.7201   0.1737   1.1362   C3      2  UNL2   -0.5039
    576 C    9.7273   0.7722  -0.7250   C2      4  UNL4   -0.3953
    577 C    8.2056   1.8993  -1.8138   C2      2  UNL2   -0.4264
    578 C    7.8720   0.8347  -3.6875   C3      2  UNL2   -0.4264
    579 C    9.1537  -0.9291  -3.7017   C3      2  UNL2   -0.3953
    580 C    7.8669  -2.7135  -3.7102   C3      2  UNL2   -0.4729
    581 C    8.4324   1.0506   0.6815   C2      4  UNL4   -0.5116
    582 C    8.9313   1.3610  -0.2061   C2      4  UNL4   -0.4341
    583 C    8.1898   1.9035  -0.7795   C3      8  UNL8   -0.4651
    584 C    9.5805  -0.3477   0.6077   C3      2  UNL2   -0.4419
    585 C    9.5346  -1.3960   0.7049   C3      2  UNL2   -0.4651
    586 C   10.0050  -0.0551  -0.2639   C3      2  UNL2   -0.4031
    587 C   10.2928  -0.8041  -0.8385   C2      2  UNL2   -0.3953
    588 C    9.7320   0.7995  -1.7589   C3      2  UNL2   -0.3798
    589 C    8.9950   1.3489  -2.3172   C2      9  UNL9   -0.3876
    590 C   10.0149  -0.0202  -2.2753   C3     10  UNL1   -0.3721
    591 C    8.8122   0.8351  -3.2299   C3      2  UNL2   -0.3876
    592 C    9.4309  -0.0443  -3.2579   C2      2  UNL2   -0.3798
    593 C    7.5710  -0.1021  -4.2037   C3     11  UNL1   -0.4419
    594 C    8.2014  -0.9446  -4.1995   C3      2  UNL2   -0.4186
    595 C    6.5594  -0.4120  -4.1992   C3      2  UNL2   -0.5116
    596 C    7.5758  -1.8329  -4.1951   C3      2  UNL2   -0.4574
    597 C    8.8756  -0.7938   1.2909   C2      2  UNL2   -0.5039
    598 C    9.2958   0.5557   0.4175   C3      2  UNL2   -0.4419
    599 C    9.3736  -2.3491   0.4217   C3      2  UNL2   -0.4806
    600 C    9.1614   1.4410  -1.2003   C3      2  UNL2   -0.3953
    601 C    8.1306   1.5757  -2.7612   C3      2  UNL2   -0.4109
    602 C    9.9527  -0.8272  -2.7631   C3      2  UNL2   -0.3798
    603 C    8.4982   0.0894  -3.8868   C3     12  UNL1   -0.3953
    604 C    6.9324   0.5843  -3.8963   C3     13  UNL1   -0.4961
    605 C    8.6453  -1.7629  -3.8978   C1     12  UNL1   -0.4186
    606 C    8.4888  -4.5011  -2.0904   C3      2  UNL2   -0.4574
    607 C    7.7696  -3.9576   1.7041   C2      2  UNL2   -0.5426
    608 C    8.7063  -4.6459  -0.1349   C2      2  UNL2   -0.4651
    609 C    4.7820  -3.9607  -3.1433   C3      2  UNL2   -0.6124
    610 C    6.8703  -4.6532  -3.1435   C3      2  UNL2   -0.4806
    611 C    7.0336  -3.4056   2.1720   C3      2  UNL2   -0.6202
    612 C    7.5074  -4.8723   1.2316   C3      2  UNL2   -0.5426
    613 C    7.9734  -5.1747   0.3729   C2     13  UNL1   -0.4961
    614 C    8.5380  -3.3357   1.2717   C2      2  UNL2   -0.5116
    615 C    9.0285  -3.7241   0.3070   C2      2  UNL2   -0.4806
    616 C    4.0177  -3.4927  -2.6548   C3      2  UNL2   -0.7519
    617 C    6.1015  -5.1948  -2.7092   C2      2  UNL2   -0.5194
    618 C    8.7942  -4.5514  -1.2296   C3      2  UNL2   -0.4574
    619 C    8.0012  -5.1835  -1.7747   C3      2  UNL2   -0.4651
    620 C    9.0018  -3.7455  -1.8225   C2     13  UNL1   -0.4651
    621 C    8.4967  -3.7445  -2.6479   C3      2  UNL2   -0.4651
    622 C    7.8368  -4.5659  -2.7490   C2      2  UNL2   -0.4574
    623 C    6.5792  -3.7726  -3.6284   C3      2  UNL2   -0.5039
    624 C    8.3770  -4.2888   0.9884   C3     13  UNL1   -0.4961
    625 C    8.1990  -5.2633  -0.7034   C3     14  UNL1   -0.4729
    626 C    9.1678  -3.8781  -0.5931   C3     15  UNL1   -0.4651
    627 C    7.1631  -5.3993  -2.2186   C3      2  UNL2   -0.4806
    628 C    7.6487  -3.7026  -3.3311   C3      2  UNL2   -0.4729
    629 C    5.6739  -4.3777  -3.3116   C3      9  UNL9   -0.5349
    630 C    2.7129  -5.9855   4.0512   C2      9  UNL9   -0.5736
    631 C    0.5185  -7.6209   2.3734   C3      2  UNL2   -0.4031
    632 C    3.5635  -8.6162   2.3613   C3      2  UNL2   -0.4031
    633 C    1.8905  -8.6151  -0.3498   C3      2  UNL2   -0.3721
    634 C    2.1322  -7.7536   3.4432   C3      2  UNL2   -0.4264
    635 C    4.1940  -7.0904   3.4477   C3      9  UNL9   -0.4884
    636 C    1.8053  -8.8635   1.6090   C3      2  UNL2   -0.3643
    637 C    0.2984  -7.7836   0.4706   C3     16  UNL1   -0.3721
    638 C    3.6446  -8.8709   0.4688   C3      2  UNL2   -0.4031
    639 C    1.2064  -7.0935  -1.3997   C3      2  UNL2   -0.4341
    640 C    1.8094  -5.9553   3.9112   C3      2  UNL2   -0.5891
    641 C    2.4254  -6.8539   3.9218   C3      2  UNL2   -0.4884
    642 C    3.4581  -6.5384   3.9156   C3      2  UNL2   -0.5194
    643 C    0.5835  -6.9355   2.9743   C3      2  UNL2   -0.4574
    644 C    1.2012  -7.7901   2.9674   C3      2  UNL2   -0.4109
    645 C    0.0142  -6.9256   2.0673   C3      2  UNL2   -0.4341
    646 C    1.0302  -8.3208   2.0715   C3      2  UNL2   -0.3721
    647 C    0.3010  -7.8053   1.4895   C3      2  UNL2   -0.3798
    648 C    2.9676  -8.3155   2.9964   C3      2  UNL2   -0.4109
    649 C    3.9319  -8.0051   2.9752   C3      2  UNL2   -0.4341
    650 C    2.7296  -8.8651   2.0993   C3      2  UNL2   -0.3798
    651 C    4.3979  -8.3075   2.1165   C3      2  UNL2   -0.4264
    652 C    3.6908  -8.8672   1.4888   C3      2  UNL2   -0.3953
    653 C    0.0071  -6.8977  -0.0494   C3      2  UNL2   -0.4109
    654 C    0.4421  -6.6255  -0.9112   C3      2  UNL2   -0.4496
    655 C    1.7786  -8.8737   0.5122   C3      2  UNL2   -0.3643
    656 C    1.0584  -8.3403  -0.0508   C3      2  UNL2   -0.3643
    657 C    2.7138  -8.8752  -0.0496   C2      2  UNL2   -0.3798
    658 C    1.5092  -8.0176  -0.9410   C3      2  UNL2   -0.3876
    659 C    2.5260  -8.3276  -0.9656   C3      2  UNL2   -0.4031
    660 C    4.4257  -8.3163  -0.0311   C3      2  UNL2   -0.4419
    661 C    1.3333  -6.8448   3.5903   C3      2  UNL2   -0.4806
    662 C    3.0781  -7.5394   3.6237   C3      2  UNL2   -0.4496
    663 C    1.9390  -8.4093   2.7302   C3      2  UNL2   -0.3876
    664 C    4.8014  -7.4216   2.7320   C3      2  UNL2   -0.4729
    665 C   -0.1943  -6.8844   1.1364   C3      2  UNL2   -0.4186
    666 C    1.0179  -8.5440   1.1002   C3      2  UNL2   -0.3643
    667 C    2.6165  -9.0638   1.0848   C3      2  UNL2   -0.3721
    668 C    0.5838  -7.6059  -0.4670   C3      2  UNL2   -0.3876
    669 C    4.6235  -8.3961   1.0402   C3      2  UNL2   -0.4341
    670 C    3.5876  -8.5321  -0.4750   C3      2  UNL2   -0.4186
    671 C    2.0984  -7.5105  -1.5680   C3      2  UNL2   -0.4341
    672 C    5.4544  -7.7917   1.5272   C3      2  UNL2   -0.4574
    673 C    7.3345  -5.1958   1.5267   C3      2  UNL2   -0.5271
    674 C    6.8041  -6.8094  -1.1809   C3      2  UNL2   -0.4496
    675 C    4.6110  -5.2082  -2.8627   C3      2  UNL2   -0.5581
    676 C    6.0388  -4.0742   2.6124   C3      2  UNL2   -0.6589
    677 C    6.0849  -6.2659   2.6135   C3      2  UNL2   -0.5039
    678 C    7.0216  -6.9542   0.7746   C3      2  UNL2   -0.4496
    679 C    5.5355  -8.0464  -0.3653   C3      2  UNL2   -0.4264
    680 C    5.1857  -6.9614  -2.2340   C3      2  UNL2   -0.4496
    681 C    5.8228  -7.1806   2.1411   C3      2  UNL2   -0.4729
    682 C    6.2888  -7.4830   1.2824   C3      2  UNL2   -0.4419
    683 C    5.5817  -8.0427   0.6546   C3      2  UNL2   -0.4341
    684 C    6.8992  -4.5956   2.0839   C3      2  UNL2   -0.5814
    685 C    6.8533  -5.6440   2.1811   C3      2  UNL2   -0.5116
    686 C    7.3438  -6.0324   1.2165   C3      2  UNL2   -0.4806
    687 C    4.6047  -8.0507  -0.8837   C3      2  UNL2   -0.4419
    688 C    4.4169  -7.5030  -1.7997   C3      2  UNL2   -0.4496
    689 C    7.1096  -6.8596  -0.3201   C3      2  UNL2   -0.4496
    690 C    6.3166  -7.4917  -0.8652   C3      2  UNL2   -0.4264
    691 C    7.3172  -6.0538  -0.9130   C3      2  UNL2   -0.4806
    692 C    6.8121  -6.0528  -1.7384   C3      2  UNL2   -0.4806
    693 C    6.1522  -6.8742  -1.8395   C3      2  UNL2   -0.4496
    694 C    5.5202  -5.1925  -2.7233   C2      2  UNL2   -0.5426
    695 C    3.8782  -4.6600  -2.7230   C3      2  UNL2   -0.6357
    696 C    3.8726  -5.7295  -2.7242   C3      2  UNL2   -0.5349
    697 C    4.8946  -6.0808  -2.7189   C3      2  UNL2   -0.4961 
    698 C    6.1944  -5.0418   2.7671   C3      2  UNL2   -0.5736    
    699 C    6.6923  -6.5971   1.8979   C3      2  UNL2   -0.4729 
    700 C    6.5144  -7.5716   0.2060   C3      2  UNL2   -0.4341 
    701 C    7.4832  -6.1864   0.3164   C3      2  UNL2   -0.4729 
    702 C    5.4785  -7.7075  -1.3092   C3      2  UNL2   -0.4264 
    703 C    5.9641  -6.0108  -2.4216   C1     17  UNL1   -0.4884 
    704 C    3.9893  -6.6859  -2.4021   C3      2  UNL2   -0.4806 
    705 C   -5.1227   8.4747   1.6769   C3     30  UNL3   0.6429 
    706 C   -5.9457   6.7804  -1.3609   C3     31  UNL3   0.7143 
    707 C   -2.5257   7.7696   3.1555   C3      2  UNL2   0.7714 
    708 C   -3.6634   7.1980   3.1964   C3     32  UNL3   0.7286 
    709 C   -4.1922   7.6065   2.9115   C3      2  UNL2   0.7000 
    710 C   -3.4221   9.4071   1.8865   C3      2  UNL2   0.6714 
    711 C   -2.7888  10.0824   0.0307   C3      2  UNL2   0.6571 
    712 C   -3.1553  10.0362  -0.5004   C3      2  UNL2   0.6429 
    713 C   -5.1227   8.4747   1.6769   C3     33  UNL3   0.6429 
    714 C   -5.5480   7.5816   1.7484   C1     37  UNL3   0.6714 
    715 C   -5.6870   6.9656   1.7334   C1     37  UNL3   0.7000 
    716 C   -5.6633   6.2109   1.7313   C3      2  UNL2   0.7571 
    717 C   -5.1227   8.4747   1.6769   C3      2  UNL2   0.6429 
    718 C   -5.2015   8.9503   0.7796   C3      2  UNL2   0.6286 
    719 C   -5.7610   8.1141   0.8381   C3      2  UNL2   0.6429 
    720 C   -6.1508   7.2671   0.1665   C3     34  UNL3   0.6857 
    721 C   -5.3165   5.0308   1.5393   C3      2  UNL2   0.8857 
    722 C   -0.8767   8.8914  -1.7725   C3      2  UNL2   0.7857 
    723 C   -1.7704   9.3271  -1.9230   C3     35  UNL3   0.7000 
    724 C   -3.6368   9.6306  -1.5332   C1      2  UNL2   0.6286 
    725 C   -4.3163   9.2423  -1.7089   C1      2  UNL2   0.6286 
    726 C   -4.8360   8.6862  -1.9082   C3      2  UNL2   0.6429 
    727 C   -5.2957   8.0004  -1.9616   C3      2  UNL2   0.6571 
    728 C   -3.6368   9.6306  -1.5332   C3      2  UNL2   0.6286 
    729 C   -3.4630   8.7035  -2.7093   C3      2  UNL2   0.6571 
    730 C   -5.9457   6.7804  -1.3609   C3      2  UNL2   0.7143 
    731 C   -5.6081   5.7630  -1.7495   C1      2  UNL2   0.8143 
    732 C   -5.1920   5.0035  -1.8022   C1      2  UNL2   0.9143 
    733 C   -5.5786   6.8017  -2.0218   C3      2  UNL2   0.7143 
    734 C   -5.2240   6.6116  -2.4456   C3      2  UNL2   0.7286 
    735 C   -4.7565   6.4641  -2.8319   C3     36  UNL3   0.7571 
    736 C   -4.1988   6.1768  -3.1150   C3      2  UNL2   0.7857 
    737 C   -3.9289   8.4468   2.6285   C3      2  UNL2   0.6714 
    738 C   -5.1982   6.5961   2.3630   C3      2  UNL2   0.7286 
    739 C   -4.7987   6.1026   2.6408   C3      2  UNL2   0.7714 
    740 C   -4.4536   9.6590  -0.0569   C3      2  UNL2   0.6286 
    741 C   -4.6609   9.4252   0.7283   C3      2  UNL2   0.6286 
    742 C   -3.7251   9.9487   0.1880   C3      2  UNL2   0.6286 
    743 C   -3.9818   9.6782   1.0483   C3      2  UNL2   0.6429 
    744 C   -2.6519   9.8128  -1.3742   C2      2  UNL2   0.6571 
    745 C   -1.2722   9.4409  -1.3174   C3      2  UNL2   0.7429 
    746 C   -2.1888   9.9586  -0.7246   C3      2  UNL2   0.6857 
    747 C   -1.4367   9.7339  -0.6647   C3      2  UNL2   0.7286 
    748 C   -6.1859   6.6522  -0.4437   Car     2  UNL2   0.7286 
    749 C   -5.5277   8.3577  -1.2212   C3      2  UNL2   0.6429 
    750 C   -5.0450   9.0410  -1.0540   C3     37  UNL3   0.6286 
    751 C   -5.9010   7.9513  -0.6775   C3      2  UNL2   0.6571 
    752 C   -5.6952   8.4791  -0.1050   C3      2  UNL2   0.6429 
    753 C   -5.6811   5.2499  -1.1733   C3      2  UNL2   0.8714 
    754 C   -2.7416   8.4201  -2.9762   C3      2  UNL2   0.7000 
    755 C   -2.3231   8.9484  -2.5428   C3      2  UNL2   0.6857 
    756 C   -1.6449   8.4943  -2.6859   C2      2  UNL2   0.7429 
    757 C   -1.1291   7.1175  -2.9782   C3      2  UNL2   0.8714 
    758 C   -3.6065   7.1746  -3.3222   C2      2  UNL2   0.7286 
    759 C   -4.4379   7.2184  -2.9897   C3      2  UNL2   0.7000 
    760 C   -3.8623   7.8844  -3.0551   C3      2  UNL2   0.6857 
    761 C   -4.8033   7.7980  -2.5716   Car     2  UNL2   0.6714 
    762 C   -4.2428   8.4481  -2.5815   Car     2  UNL2   0.6571 
    763 C   -3.4846   5.9955  -3.3142   Car     2  UNL2   0.8143 
    764 C   -3.8821   5.3340  -2.9841   Car     2  UNL2   0.8857 
    765 C   -4.5141   5.0346  -2.4895   C3      2  UNL2   0.9286 
    766 C   -4.8818   5.6879  -2.5579   C3      2  UNL2   0.8286 
    767 C   -0.5423   2.3684  -2.9716   C3      2  UNL2   0.5286 
    768 C    0.1179   1.5895  -2.5463   C3      2  UNL2   -0.0620 
    769 C   -1.8172   4.6893   3.8294   C3      2  UNL2   0.7143 
    770 C   -2.5989   5.9627   3.9183   C3      2  UNL2   0.7286 
    771 C   -1.8172   4.6893   3.8294   C2      2  UNL2   0.7143 
    772 C    3.2480   7.3939  -0.3737   C3      2  UNL2   0.9143 
    773 C    0.2211   2.2375   3.1721   C3      2  UNL2   -0.0620 
    774 C   -0.7701   1.7647   2.6400   C3      2  UNL2   -0.0310 
    775 C    4.1205   7.1071  -0.9351   C3      2  UNL2   0.6429 
    776 C    3.7698   6.7420  -2.1343   C3      2  UNL2   0.6143 
    777 C    3.7698   6.7420  -2.1343   C3      2  UNL2   0.6143 
    778 C    4.9935   2.9035  -4.2650   C3      2  UNL2   -0.1783 
    779 C    6.5391   2.3525  -3.4421   C3      2  UNL2   -0.3488 
    780 C    6.1600   3.3518  -4.0324   C3      2  UNL2   -0.1550 
    781 C    5.6536   2.1247  -3.8398   C3      2  UNL2   -0.3643 
    782 C    7.6151   2.9171   0.6724   C3      2  UNL2   -0.3178 
    783 C    6.5233   3.8092   1.9300   C3     42  UNL4   -0.1550 
    784 C    7.1752   4.7436   1.1229   C2     19  UNL1   -0.0543 
    785 C    7.5192   3.8665   1.0761   C3     42  UNL4   -0.1628 
    786 C    6.8601   2.7027   1.5011   C3      2  UNL2   -0.3721 
    787 C    7.4784   2.1807   1.1598   C3      2  UNL2   -0.4574 
    788 C    7.8224   1.3036   1.1131   C3      2  UNL2   -0.5504 
    789 C    5.5139   1.5960  -4.0530   C3      2  UNL2   -0.4341 
    790 C    4.5208   1.2889  -4.0634   C3      2  UNL2   -0.4729 
    791 C    5.1607   0.2999  -4.1502   C3      2  UNL2   -0.5659 
    792 C    6.3272   0.7482  -3.9176   C3      2  UNL2   -0.5271 
    793 C   -0.2216  -3.9594   4.5400   C3     38  UNL3   -0.4651 
    794 C   -1.0701  -5.0488   4.5624   C3      2  UNL2   -0.2946 
    795 C   -1.0701  -5.0488   4.5624   C3      2  UNL2   -0.2946 
    796 C    0.1153  -5.0658   4.1111   C3     19  UNL1   -0.5039 
    797 C   -0.8386  -6.6479  -0.0703   C1     29  UNL2   -0.2946 
    798 C   -1.9888  -6.2391  -0.9501   C2      2  UNL2   -0.0775 
    799 C   -1.0533  -5.8449  -1.1911   C3      2  UNL2   -0.2481 
    800 C    2.6391  -3.2954   4.5686   C3     39  UNL3   -0.7519 
    801 C    1.9303  -2.4945   4.5762   C3      2  UNL2   -0.7519 
    802 C    1.7905  -4.3847   4.5910   C3      2  UNL2   -0.6667 
    803 C    1.0088  -3.1113   4.6800   C3      2  UNL2   -0.6589 
    804 C    1.7905  -4.3847   4.5910   C3      2  UNL2   -0.6667 
    805 C   -2.3464  -5.5034  -1.5235   C3      2  UNL2   0.0429 
    806 C   -1.6755  -4.4725  -2.2467   C3      2  UNL2   -0.0930 
    807 C   -2.5610  -4.7004  -2.6444   C1      2  UNL2   0.1714 
    808 C   -4.4540   0.7820   3.4140   C1     12  UNL1   0.6429 
    809 C   -5.1629   1.5829   3.4216   C3     45  UNL4   0.6286 
    810 C   -6.0843   0.9661   3.5254   C3     45  UNL4   0.5714 
    811 C   -8.8108   1.7005   0.1674   C2      2  UNL2   0.5857 
    812 C   -8.3796   2.2671  -0.6710   C2      2  UNL2   0.6143 
    813 C   -8.0046  -4.0071  -3.7300   C1     29  UNL2   0.5000 
    814 C   -7.7292  -2.8341  -4.3963   C2      2  UNL2   0.4857 
    815 C   -8.8162  -3.0051  -4.0644   C3      2  UNL2   0.4571 
    816 C   -8.4045   1.2493  -2.3756   C3     39  UNL3   0.5857 
    817 C   -8.4045   1.2493  -2.3756   C3      2  UNL2   0.5857 
    818 C   -9.0908   1.2637  -0.8764   C3      2  UNL2   0.5714 
    819 C   -7.4860  -5.6510   1.1155   C3      2  UNL2   0.4286 
    820 C   -8.3843  -5.7889   0.9666   C3      2  UNL2   0.4000 
    821 C  -11.7124  -2.0897  -0.9960   C3      2  UNL2   0.4000 
    822 C  -11.5959  -3.1394  -1.1517   C3     39  UNL3   0.3857 
    823 C  -11.7914  -2.5757   0.2356   C3      2  UNL2   0.3857 
    824 C   -7.2865  -1.8912   3.1414   C3      2  UNL2   0.4857 
    825 C   -7.9953  -1.0903   3.1489   C3      2  UNL2   0.4857 
    826 C   -8.9168  -1.7071   3.2527   C3      2  UNL2   0.4286 
    827 C    3.1017  -2.0680  -3.0401   C3      2  UNL2   -0.7984 
    828 C    5.0176  -2.0323   2.7826   C3      1  UNL1   -0.8837 
    829 C    5.0176  -2.0323   2.7826   C3      2  UNL2   -0.8837  
    830 C    2.9547  -2.6301  -2.7598   C3      3  UNL3   -0.8295  
    831 C    1.9616  -2.9372  -2.7701   C3      2  UNL2   -0.7442  
    832 C    2.6016  -3.9261  -2.8569   C3      2  UNL2   -0.6744  
    833 C   -2.0722   9.6900   1.5424   C3      2  UNL2   0.7143  
    834 C   -2.0722   9.6900   1.5424   C3      2  UNL2   0.7143  
    835 C   -2.0722   9.6900   1.5424   C3      4  UNL4   0.7143  
    836 C   -2.8704  10.0695   0.4228   C3      4  UNL4   0.6571 
    837 C   -5.9028   5.3085   0.7664   C3      4  UNL4   0.8429  
    838 C   -6.1688   6.2509   0.6658   C3      2  UNL2   0.7429  
    839 C   -2.3526   7.5566  -3.3846   C3      4  UNL4   0.7429  
    840 C   -3.3457   7.2495  -3.3949   C2      2  UNL2   0.7286  
    841 C   -2.7057   6.2605  -3.4817   C2      4  UNL4   0.8143  
    842 C   -1.5392   6.7089  -3.2491   C3      2  UNL2   0.8571  
    843 C   -0.1730   1.1841  -2.5037   Car     2  UNL2   -0.1163  
    844 C   -1.1662   0.8771  -2.5141   C3      2  UNL2   0.1286  
    845 C   10.1200  -2.3061  -0.5765   C3      2  UNL2   -0.4186  
    846 C    9.9038  -3.0306  -1.8113   C3      2  UNL2   -0.4109  
    847 C    9.4879  -3.2819  -0.6746   C3      2  UNL2   -0.4574  
    848 C   10.2668  -0.9295  -2.1113   C3      2  UNL2   -0.3798  
    849 C   10.1247  -1.8201  -2.6469   C3      2  UNL2   -0.3798  
    850 C    8.8817  -3.6583  -2.2956   C3      2  UNL2   -0.4574  
    851 C    9.9038  -3.0306  -1.8113   C3      2  UNL2   -0.4109  
    852 C    9.5526  -2.6274  -3.0188   C3      2  UNL2   -0.4031  
    853 C   10.4283  -1.5847  -1.3402   C2      2  UNL2   -0.3876  
    854 C    9.1734  -1.6281  -3.6091   C3      2  UNL2   -0.4031  
    855 C    8.6671  -2.8553  -3.4164   C3      2  UNL2   -0.4341  
    856 C    1.2279   9.7003   3.1046   C3      2  UNL2   0.5571  
    857 C   -1.9617   8.6931   3.1142   C2      2  UNL2   0.7000  
    858 C    3.3446   6.8237   2.9963   C3      2  UNL2   0.6143  
    859 C    2.9237   8.6312  -0.0162   C3      5  UNL5   0.7143  
    860 C    0.2705   7.0125   4.7806   C3      2  UNL2   0.5571  
    861 C    0.6354   7.9880   4.5928   C3      2  UNL2   0.5429  
    862 C    0.8387   8.5782   4.3012   C3      2  UNL2   0.5429  
    863 C   -0.5023   7.4164   4.6336   C2      2  UNL2   0.5857  
    864 C   -1.0311   7.8249   4.3487   C2      2  UNL2   0.6143  
    865 C    0.2705   7.0125   4.7806   C2      2  UNL2   0.5571  
    866 C   -1.2232   5.7423   4.1641   C3      2  UNL2   0.7000  
    867 C    0.2705   7.0125   4.7806   C3      2  UNL2   0.5571  
    868 C    1.3129   7.0313   4.6423   C3      2  UNL2   0.5286  
    869 C    1.9281   7.0948   4.3901   C3      2  UNL2   0.5286  
    870 C    2.5399   6.9869   3.9850   C3      2  UNL2   0.5429  
    871 C    1.2279   9.7003   3.1046   C3      2  UNL2   0.5571  
    872 C    0.3298   9.7308   3.2693   C3      2  UNL2   0.5714  
    873 C   -0.2611   9.6255   3.3238   C3      2  UNL2   0.6000  
    874 C    1.2279   9.7003   3.1046   C3      2  UNL2   0.5571  
    875 C    1.9344   9.2544   3.2605   C3      2  UNL2   0.5429  
    876 C    2.3557   8.9347   3.2314   C2      2  UNL2   0.5429  
    877 C    2.7427   8.4891   3.2077   C2      2  UNL2   0.5429  
    878 C    1.8379   9.8326   2.2579   C3      6  UNL6   0.5714  
    879 C    2.1830   9.7421   1.7612   C3      2  UNL2   0.5857  
    880 C    2.5684   9.4673   1.1206   C3      2  UNL2   0.6143  
    881 C    1.2279   9.7003   3.1046   C2      2  UNL2   0.5571  
    882 C    0.9007  10.1153   2.3497   C1      2  UNL2   0.5857  
    883 C    0.6456  10.2463   1.9210   C1      2  UNL2   0.6000  
    884 C    0.3723  10.3008   1.4679   C3      2  UNL2   0.6286  
    885 C    0.0058  10.2545   0.9368   C3      2  UNL2   0.6571  
    886 C   -1.9617   8.6931   3.1142   C3      2  UNL2   0.7000  
    887 C   -2.3870   7.7999   3.1857   C3      2  UNL2   0.7714  
    888 C   -1.9617   8.6931   3.1142   C3      2  UNL2   0.7000  
    889 C    2.9083   5.5854   3.1986   C3      2  UNL2   0.6571  
    890 C    3.3446   6.8237   2.9963   C2      2  UNL2   0.6143  
    891 C    3.5818   7.3339   2.3556   C1      2  UNL2   0.6429  
    892 C    3.6135   7.7521   1.8347   C3      2  UNL2   0.6571  
    893 C    3.6133   6.3484   2.1717   C3      2  UNL2   0.7429  
    894 C    2.2843   9.1098  -0.3352   C2      5  UNL5   0.7000  
    895 C    1.3907   9.5455  -0.4857   C2      2  UNL2   0.7000  
    896 C    2.9237   8.6312  -0.0162   C2      2  UNL2   0.7143  
    897 C    2.3411   8.2773  -1.0070   C2      2  UNL2   0.8286  
    898 C   -0.4757   9.8490  -0.0960   C3      2  UNL2   0.7286  
    899 C   -0.4757   9.8490  -0.0960   C3      5  UNL5   0.7286  
    900 C   -0.7678   8.6652   4.0658   C2      5  UNL5   0.6000  
    901 C    2.8617   7.7156   3.5286   C3      7  UNL7   0.5429  
    902 C    2.1664   7.9596   4.0575   C3      2  UNL2   0.5286  
    903 C   -2.0372   6.8145   3.8003   C2      4  UNL4   0.7429  
    904 C   -1.6376   6.3210   4.0781   C2      2  UNL2   0.7143  
    905 C    1.9814   4.9959   3.6799   C3      2  UNL2   0.6143  
    906 C    2.5437   6.1778   3.8803   C3      2  UNL2   0.5571  
    907 C    1.8838   5.5623   4.1075   C3      2  UNL2   0.5571  
    908 C    1.7659   6.2221   4.4000   C2      4  UNL4   0.5286  
    909 C    3.0887   8.9063   1.6194   C2      4  UNL4   0.6143  
    910 C    2.8288   9.0606   2.2598   C3      8  UNL8   0.5714  
    911 C    0.5091  10.0312   0.0631   C3      2  UNL2   0.6714  
    912 C    1.8888   9.6593   0.1198   C3      2  UNL2   0.6571  
    913 C    0.9722  10.1770   0.7127   C3      2  UNL2   0.6286  
    914 C    1.7243   9.9523   0.7725   C2      2  UNL2   0.6286  
    915 C    0.8379   9.1668  -1.1055   C3      2  UNL2   0.7571  
    916 C    1.5161   8.7126  -1.2486   C2      9  UNL9   0.8000  
    917 C    0.3791   8.2439  -2.2909   C3     10  UNL1   0.8143  
    918 C    0.0940   7.3676  -2.9107   C3      2  UNL2   0.8571  
    919 C   -0.8991   7.0606  -2.9210   C2      2  UNL2   0.9000  
    920 C    0.4943   5.4406   4.5512   C3     11  UNL1   0.5429  
    921 C    0.4943   5.4406   4.5512   C3      2  UNL2   0.5429  
    922 C   -0.3749  10.2361   1.5278   C3      2  UNL2   0.6429  
    923 C   -1.4120   9.8855   1.8278   C3      2  UNL2   0.6857  
    924 C    3.0850   8.6813   0.3895   C2      2  UNL2   0.6857  
    925 C    3.6218   7.7873   0.5245   C3      2  UNL2   0.7429  
    926 C    3.7832   7.1320   1.2955   C3      2  UNL2.  0.7571 
