@<TRIPOS>MOLECULE
*****
 477 0 0 0 0
SMALL
GASTEIGER

@<TRIPOS>ATOM
      1 C     3.4160   0.7839   3.3991      C3      1  UNL1      0.0814 
      2 C     3.3605   0.9667  -3.3982      C3      2  UNL2      0.0679 
      3 C     3.6863   1.5907   3.3069      C3      3  UNL3      0.0905 
      4 C     2.8270   1.2223   3.3335      C3      2  UNL2      -0.0184
      5 C     3.4160   0.7839   3.3991      C3      2  UNL2      0.0814 
      6 C     2.6813   0.2429   3.2681      C3      2  UNL2      0.0271 
      7 C     4.2304   0.8384   3.2941      C3      2  UNL2      0.1538 
      8 C     4.4638   0.5065  -3.2063      C3      4  UNL4      0.1584 
      9 C     3.0379   4.3016   1.7212      C3      4  UNL4      -0.1656
     10 C     2.2490   1.4988  -3.3990      C3      4  UNL4      -0.1319
     11 C     2.0806   1.6138   3.3971      C3      2  UNL2      -0.1718
     12 C     2.4454   2.5893   3.2094      C3      4  UNL4      -0.1810
     13 C     2.6487   3.1795   2.9178      C2      2  UNL2      -0.1810
     14 C     1.3077   2.0177   3.2502      C2      4  UNL4      -0.3865
     15 C     2.0806   1.6138   3.3971      C3      2  UNL2      -0.1718
     16 C     2.1845   0.8219   3.3309      Car     2  UNL2      -0.0798
     17 C     2.0806   1.6138   3.3971      C3      2  UNL2      -0.1718
     18 C     3.0379   4.3016   1.7212      C3      2  UNL2      -0.1656
     19 C     2.1399   4.3321   1.8858      C3      2  UNL2      -0.3374
     20 C     1.5490   4.2269   1.9404      C3      2  UNL2      -0.4755
     21 C     3.0379   4.3016   1.7212      C3      2  UNL2      -0.1656
     22 C     3.0379   4.3016   1.7212      C3      2  UNL2      -0.1656
     23 C     2.7107   4.7166   0.9663      C3      2  UNL2      -0.2362
     24 C     3.2008   4.1469  -1.8692      C3      2  UNL2      -0.1319
     25 C     3.3517   2.4967  -3.0265      C3      2  UNL2      -0.0184
     26 C     1.3343   4.4503  -1.4794      C2      2  UNL2      -0.5429
     27 C     0.6549   4.0620  -1.6551      C3      2  UNL2      -0.7822
     28 C     1.3343   4.4503  -1.4794      C3      2  UNL2      -0.5429
     29 C     1.5081   3.5232  -2.6555      C3      2  UNL2      -0.4509
     30 C     1.0422   3.2665   2.6824      C2      2  UNL2      -0.5828
     31 C     0.9893   4.4979   1.1022      C3      2  UNL2      -0.6564
     32 C     2.3192   4.6325  -1.3203      C3      5  UNL5      -0.3098
     33 C     2.4601   2.5203  -3.2307      C3      2  UNL2      -0.1748
     34 C     2.2295   3.2398  -2.9224      C3      2  UNL2      -0.2669
     35 C     2.6480   3.7681  -2.4890      C3      2  UNL2      -0.2147
     36 C     1.3646   1.9943  -3.2684      C2      2  UNL2      -0.3681
     37 C     1.1088   2.7041  -3.0013      C2      2  UNL2      -0.5153
     38 C     0.7283   3.2678  -2.5277      C2      2  UNL2      -0.7086
     39 C     1.0305   0.7881  -3.3990      C3      2  UNL2      -0.2669
     40 C     0.8622   0.9031   3.3971      C3      2  UNL2      -0.3160
     41 C     0.0893   1.3070   3.2502      C3      2  UNL2      -0.5798
     42 C     0.8622   0.9031   3.3971      C3      2  UNL2      -0.3160
     43 C     0.9660   0.1112   3.3308      C3      2  UNL2      -0.1595
     44 C     0.8622   0.9031   3.3971      C3      2  UNL2      -0.3160
     45 C     0.1462   1.2836  -3.2684      C3      2  UNL2      -0.5583
     46 C     0.2681   0.1045  -3.2604      C3      2  UNL2      -0.2546
     47 C     1.0524  -0.6316  -3.3990      C3      2  UNL2      -0.0245
     48 C     0.8841  -0.5166   3.3971      C3      2  UNL2      -0.0521
     49 C     0.1112  -0.1127   3.2502      C2      2  UNL2      -0.2117
     50 C     0.8841  -0.5166   3.3971      C2      2  UNL2      -0.0521
     51 C     0.9880  -1.3085   3.3308      C3      6  UNL6      0.1131 
     52 C     0.8841  -0.5166   3.3971      C3      2  UNL2      -0.0521
     53 C     0.1681  -0.1361  -3.2684      C3      2  UNL2      -0.1994
     54 C     0.2900  -1.3152  -3.2604      C2      2  UNL2      0.1403 
     55 C     2.2957  -1.2881  -3.3989      C1      2  UNL2      0.1086 
     56 C     2.1274  -1.1731   3.3972      C1      2  UNL2      0.0950 
     57 C     2.1274  -1.1731   3.3972      C3      2  UNL2      0.0950 
     58 C     2.2313  -1.9651   3.3309      C3      2  UNL2      0.1719 
     59 C     2.4800  -2.4238   3.1916      C3      2  UNL2      0.1946 
     60 C     2.6435  -2.9082   2.9551      C3      2  UNL2      0.2217 
     61 C     2.8143  -3.4057   2.5867      C3      2  UNL2      0.2398 
     62 C     2.1274  -1.1731   3.3972      C3      2  UNL2      0.0950 
     63 C     3.0528  -4.0815   1.7381      C2      2  UNL2      0.2579 
     64 C     3.0528  -4.0815   1.7381      C1      2  UNL2      0.2579 
     65 C     2.7526  -4.1493  -1.7475      C3      2  UNL2      0.2941 
     66 C     1.5333  -1.9717  -3.2603      C3      2  UNL2      0.2081 
     67 C     3.1997  -2.5269  -3.0056      C2      5  UNL5      0.1538 
     68 C     2.4343  -2.6817  -3.0911      C2      2  UNL2      0.2172 
     69 C     3.0650  -3.3915  -2.5269      C2      2  UNL2      0.2172 
     70 C     2.3661  -3.4805  -2.5903      C2      2  UNL2      0.2851 
     71 C     3.4915  -0.5712  -3.3989      C3      2  UNL2      0.0679 
     72 C     3.3232  -0.4562   3.3972      C3      5  UNL5      0.0679 
     73 C     2.5503  -0.0523   3.2503      C2      5  UNL5      0.0271 
     74 C     3.3232  -0.4562   3.3972      C3      7  UNL7      0.0679 
     75 C     3.4271  -1.2481   3.3310      C3      2  UNL2      0.0769 
     76 C     3.3232  -0.4562   3.3972      C2      4  UNL4      0.0679 
     77 C     2.6072  -0.0757  -3.2683      C2      2  UNL2      0.0362 
     78 C     5.5493   4.4501   1.7213      C3      2  UNL2      0.1131 
     79 C     7.6660   1.5735   1.6130      C3      2  UNL2      0.2353 
     80 C     7.2452   3.3810  -1.3995      C3      2  UNL2      0.2172 
     81 C     4.7603   1.6472  -3.3988      C2      4  UNL4      0.1629 
     82 C     4.5920   1.7622   3.3973      C2      4  UNL4      0.1538 
     83 C     4.9568   2.7377   3.2095      C3      8  UNL8      0.1357 
     84 C     5.1601   3.3279   2.9179      C3      2  UNL2      0.1267 
     85 C     3.8191   2.1661   3.2504      C3      2  UNL2      0.0679 
     86 C     4.5920   1.7622   3.3973      C3      2  UNL2      0.1538 
     87 C     4.6959   0.9703   3.3310      C2      2  UNL2      0.1719 
     88 C     4.9446   0.5115   3.1917      C3      2  UNL2      0.1674 
     89 C     4.5920   1.7622   3.3973      C2      9  UNL9      0.1538 
     90 C     5.6344   1.7810   3.2590      C3     10  UNL1      0.2036 
     91 C     5.5493   4.4501   1.7213      C3      2  UNL2      0.1131 
     92 C     4.6513   4.4806   1.8860      C2      2  UNL2      0.0317 
     93 C     4.0604   4.3753   1.9405      C3     11  UNL1      -0.0245
     94 C     5.5493   4.4501   1.7213      C3      2  UNL2      0.1131 
     95 C     6.2558   4.0041   1.8772      C3      2  UNL2      0.1674 
     96 C     6.6771   3.6845   1.8481      C3      2  UNL2      0.1946 
     97 C     7.0641   3.2389   1.8244      C2      2  UNL2      0.2172 
     98 C     6.1593   4.5824   0.8746      C3      2  UNL2      0.1448 
     99 C     6.5045   4.4918   0.3780      C3      2  UNL2      0.1629 
    100 C     6.8898   4.2170  -0.2627      C3      2  UNL2      0.1810 
    101 C     5.5493   4.4501   1.7213      C3      2  UNL2      0.1131 
    102 C     5.2221   4.8650   0.9664      C3      2  UNL2      0.0769 
    103 C     7.2297   0.3351   1.8153      C3     12  UNL1      0.1765 
    104 C     7.6660   1.5735   1.6130      C3     13  UNL1      0.2353 
    105 C     7.9032   2.0837   0.9724      C1     12  UNL1      0.2398 
    106 C     7.9349   2.5019   0.4514      C3      2  UNL2      0.2353 
    107 C     7.9347   1.0982   0.7884      C2      2  UNL2      0.2172 
    108 C     6.6057   3.8596  -1.7185      C2      2  UNL2      0.1855 
    109 C     5.7121   4.2953  -1.8690      C3      2  UNL2      0.1267 
    110 C     7.5178   2.5922  -1.6088      C3      2  UNL2      0.2353 
    111 C     7.6661   1.4450  -1.6014      C3      2  UNL2      0.2353 
    112 C     7.2452   3.3810  -1.3995      C3      2  UNL2      0.2172 
    113 C     6.6625   3.0271  -2.3903      C2     13  UNL1      0.2127 
    114 C     5.8631   2.6451  -3.0263      C2      2  UNL2      0.1946 
    115 C     3.8457   4.5988  -1.4793      C2      2  UNL2      -0.0521
    116 C     3.8457   4.5988  -1.4793      C3      2  UNL2      -0.0521
    117 C     4.0195   3.6717  -2.6553      C2      2  UNL2      -0.0061
    118 C     3.5536   3.4150   2.6825      C3      2  UNL2      -0.0460
    119 C     7.1831   2.4654   2.1454      C3      2  UNL2      0.2398 
    120 C     6.4879   2.7093   2.6742      C2     13  UNL1      0.2172 
    121 C     3.5007   4.6464   1.1023      C3      2  UNL2      -0.0982
    122 C     7.5768   3.3754  -0.4031      C2      2  UNL2      0.2172 
    123 C     7.4102   3.6561   0.2361      C3      2  UNL2      0.2081 
    124 C     7.1503   3.8103   0.8765      C3     13  UNL1      0.2036 
    125 C     4.8306   4.7809  -1.3202      C3     14  UNL1      0.0407 
    126 C     6.2103   4.4091  -1.2635      C3     15  UNL1      0.1493 
    127 C     5.2936   4.9268  -0.6706      C3      2  UNL2      0.0814 
    128 C     6.0458   4.7021  -0.6108      C3      2  UNL2      0.1357 
    129 C     8.0079   1.3802  -0.6096      C3      9  UNL9      0.2262 
    130 C     4.9714   2.6687  -3.2306      C2      9  UNL9      0.1403 
    131 C     4.7408   3.3882  -2.9222      C3      2  UNL2      0.0905 
    132 C     5.1594   3.9166  -2.4888      C3      2  UNL2      0.1041 
    133 C     5.8376   3.4624  -2.6319      C3      2  UNL2      0.1674 
    134 C     3.8760   2.1427  -3.2683      C3      2  UNL2      0.0769 
    135 C     3.6202   2.8526  -3.0011      C3      9  UNL9      -0.0092
    136 C     4.8989   0.2536  -3.0910      C3      2  UNL2      0.1493 
    137 C     7.7085  -1.3913   1.6130      C3     16  UNL1      0.0181 
    138 C     7.2931  -3.1229  -1.2828      C3      2  UNL2      0.0000 
    139 C     4.8028  -1.3176  -3.3988      C3      2  UNL2      0.0407 
    140 C     4.6344  -1.2025   3.3973      C3      2  UNL2      0.0452 
    141 C     4.9992  -0.2270   3.2095      C3      2  UNL2      0.0950 
    142 C     4.6344  -1.2025   3.3973      C3      2  UNL2      0.0452 
    143 C     4.7383  -1.9945   3.3310      C3      2  UNL2      0.0407 
    144 C     4.9871  -2.4532   3.1918      C3      2  UNL2      0.0407 
    145 C     5.1506  -2.9376   2.9552      C3      2  UNL2      0.0407 
    146 C     5.3213  -3.4351   2.5868      C3      2  UNL2      0.0452 
    147 C     4.6344  -1.2025   3.3973      C3      2  UNL2      0.0452 
    148 C     5.6768  -1.1837   3.2591      C3      2  UNL2      0.0317 
    149 C     4.0382  -4.1798   1.6978      C3      2  UNL2      0.1538 
    150 C     6.8884  -3.3138   1.6854      C3      2  UNL2      0.0045 
    151 C     7.2721  -2.6296   1.8153      C3      2  UNL2      -0.0031
    152 C     5.5598  -4.1109   1.7382      C3      2  UNL2      0.0543 
    153 C     5.2347  -4.5443   0.9224      C3      2  UNL2      0.0814 
    154 C     5.5598  -4.1109   1.7382      C3      2  UNL2      0.0543 
    155 C     6.0811  -4.2094   1.1444      C3      2  UNL2      0.0407 
    156 C     6.4482  -4.1522   0.7077      C3      2  UNL2      0.0317 
    157 C     6.8339  -3.9542   0.3181      C2      2  UNL2      0.0226 
    158 C     7.1293  -3.6991  -0.2125      C3      2  UNL2      0.0136 
    159 C     7.7085  -1.3913   1.6130      C3      2  UNL2      0.0181 
    160 C     7.9457  -0.8811   0.9724      C3      2  UNL2      0.0498 
    161 C     7.9773  -0.4629   0.4514      C3      2  UNL2      0.0860 
    162 C     7.9771  -1.8666   0.7884      C3      2  UNL2      0.0136 
    163 C     7.5602  -0.3726  -1.6087      C3      2  UNL2      0.0860 
    164 C     7.7086  -1.5198  -1.6013      C3      2  UNL2      0.0136 
    165 C     4.4913  -4.3476  -1.5170      C3      2  UNL2      0.1222 
    166 C     5.2596  -4.1787  -1.7473      C3      2  UNL2      0.0679 
    167 C     5.9966  -3.9030  -1.7925      C3      2  UNL2      0.0362 
    168 C     3.6705  -4.2861  -1.2757      C3      2  UNL2      0.1991 
    169 C     3.7472  -3.9680  -1.8899      C3      2  UNL2      0.1719 
    170 C     3.9280  -3.6238  -2.3661      C3      2  UNL2      0.1403 
    171 C     4.1362  -3.1464  -2.8039      C3      2  UNL2      0.1041 
    172 C     7.2931  -3.1229  -1.2828      C3      2  UNL2      0.0000 
    173 C     7.0118  -2.9088  -1.9351      C3      2  UNL2      0.0000 
    174 C     6.7246  -2.5818  -2.4326      C3      2  UNL2      0.0000 
    175 C     5.8688  -1.7297  -3.1714      C3      2  UNL2      0.0136 
    176 C     4.2122  -3.7158   2.3523      C3      2  UNL2      0.1176 
    177 C     3.9137  -2.9847   2.8499      C3      2  UNL2      0.1131 
    178 C     6.3453  -3.2191   2.2966      C3      2  UNL2      0.0136 
    179 C     6.9076  -2.0372   2.4970      C3      2  UNL2      -0.0031
    180 C     6.2477  -2.6527   2.7242      C3      2  UNL2      0.0045 
    181 C     6.1298  -1.9929   3.0167      C3      2  UNL2      0.0090 
    182 C     7.6847  -2.9340  -0.3499      C3      2  UNL2      0.0045 
    183 C     7.5239  -3.1737   0.4654      C3      2  UNL2      0.0045 
    184 C     6.3534  -4.1912  -0.7726      C3      2  UNL2      0.0317 
    185 C     5.3993  -4.5619  -0.7343      C3      2  UNL2      0.0769 
    186 C     5.8708  -4.5104  -0.0713      C3      2  UNL2      0.0543 
    187 C     8.0503  -1.5846  -0.6096      C3      2  UNL2      0.0226 
    188 C     5.0139  -0.2961  -3.2306      C3      2  UNL2      0.0860 
    189 C     7.0654  -1.9846  -2.3645      C3      2  UNL2      -0.0031
    190 C     4.0403  -2.0011  -3.2602      C3      2  UNL2      0.0679 
    191 C     3.6428  -2.6626  -2.9301      C3      2  UNL2      0.1222 
    192 C     5.7068  -2.5564  -3.0055      C3      2  UNL2      0.0181 
    193 C     6.2064  -3.1245  -2.4614      C3      2  UNL2      0.0136 
    194 C     4.9413  -2.7111  -3.0910      C2      2  UNL2      0.0452 
    195 C     5.5720  -3.4209  -2.5268      C3      2  UNL2      0.0362 
    196 C     4.8731  -3.5099  -2.5902      C3      2  UNL2      0.0679 
    197 C     1.5259   4.7215   0.9382      C3      2  UNL2      -0.4939
    198 C     0.9597   4.6900  -0.2150      C3      2  UNL2      -0.6656
    199 C     1.9148   4.8273  -0.8431      C3      2  UNL2      -0.3957
    200 C     2.8585   4.7877  -0.5836      C3      2  UNL2      -0.2086
    201 C     0.0364   2.2671   2.9910      C3      2  UNL2      -0.7914
    202 C     0.2526   2.8060   2.7684      C3      2  UNL2      -0.8098
    203 C    -0.2815   4.1491   1.6043      C3      2  UNL2      -0.9724
    204 C     0.1909   4.4838   0.7162      C3      2  UNL2      -0.8988
    205 C    -0.1306   4.5840   0.2664      C3      2  UNL2      -0.9540
    206 C     0.4950   3.9913  -1.6927      C3      2  UNL2      -0.8374
    207 C    -0.5980   3.5120   2.3266      C3      2  UNL2      -0.9969
    208 C    -0.8870   2.8627   2.7040      C3      2  UNL2      -1.0000
    209 C     0.1354   4.3907  -1.0508      C3      2  UNL2      -0.9080
    210 C     0.0664   2.6413  -2.8661      C3      2  UNL2      -0.8252
    211 C    -0.0809   3.3873  -2.4527      C3      2  UNL2      -0.9080
    212 C     4.2893   5.1191   0.0304      C3      2  UNL2      -0.0245
    213 C     3.2523   4.7685   0.3303      C3      2  UNL2      -0.1380
    214 C     7.3800   1.1685  -2.0303      C3      2  UNL2      0.2262 
    215 C     6.8079   0.3612  -2.4022      C3      2  UNL2      0.1719 
    216 C     6.4287   1.3605  -2.9926      C3      2  UNL2      0.2127 
    217 C     6.2834   1.5746   3.0612      C3      2  UNL2      0.2172 
    218 C     7.2793   1.6319   2.2072      C3      2  UNL2      0.2398 
    219 C     6.6202   0.4681   2.6322      C3      2  UNL2      0.1765 
    220 C     4.2210  -4.7200  -0.4930      C3      2  UNL2      0.1538 
    221 C     4.2210  -4.7200  -0.4930      C3      2  UNL2      0.1538 
    222 C     4.2824  -4.6113   0.8800      C3      2  UNL2      0.1448 
    223 C     6.3154  -0.9141   3.0599      C3      2  UNL2      0.0407 
    224 C     5.6066  -0.1132   3.0675      C3      2  UNL2      0.1086 
    225 C     6.9674   0.0203   2.2527      C3      2  UNL2      0.1267 
    226 C     7.3114  -0.8568   2.2059      C3      2  UNL2      0.0407 
    227 C     6.8020  -0.1697  -2.5460      C3      2  UNL2      0.0995 
    228 C     5.6474  -0.2804  -3.1267      C3      2  UNL2      0.0905 
    229 C     6.4608  -1.1281  -2.9912      C3      2  UNL2      0.0271 
    230 C    -1.2612   0.8311  -3.3991      C3      2  UNL2      -0.5644
    231 C    -1.4295   0.9461   3.3970      C3      2  UNL2      -0.5920
    232 C    -1.0647   1.9217   3.2092      C3      2  UNL2      -0.8129
    233 C    -0.8614   2.5119   2.9176      C3      2  UNL2      -0.9356
    234 C    -1.4295   0.9461   3.3970      C3      2  UNL2      -0.5920
    235 C    -1.3256   0.1542   3.3308      C3      2  UNL2      -0.3620
    236 C    -1.4295   0.9461   3.3970      C3      2  UNL2      -0.5920
    237 C    -0.3871   0.9650   3.2588      C3      2  UNL2      -0.5890
    238 C    -1.0500   1.8526  -3.2309      C3      2  UNL2      -0.7975
    239 C    -1.3602  -0.6289  -3.3991      C3      2  UNL2      -0.0491
    240 C    -1.5286  -0.5139   3.3970      C3      2  UNL2      -0.0798
    241 C    -2.3015  -0.1099   3.2501      C3      2  UNL2      -0.1718
    242 C    -1.5286  -0.5139   3.3970      C2      2  UNL2      -0.0798
    243 C    -1.4247  -1.3058   3.3308      C3      2  UNL2      0.2624 
    244 C    -1.1759  -1.7646   3.1915      C3      2  UNL2      0.4118 
    245 C    -1.5286  -0.5139   3.3970      C3      2  UNL2      -0.0798
    246 C    -0.4862  -0.4950   3.2588      C3      2  UNL2      -0.1227
    247 C    -0.2941  -1.0411  -3.1717      C3      2  UNL2      0.0769 
    248 C    -2.2446  -0.1334  -3.2685      C3      2  UNL2      -0.1687
    249 C    -2.1227  -1.3124  -3.2605      C3      2  UNL2      0.3846 
    250 C     2.3202  -4.5876  -1.2830      C3      2  UNL2      0.3575 
    251 C    -0.1701  -2.7823  -3.3990      C3      2  UNL2      0.3982 
    252 C    -0.3384  -2.6673   3.3971      C3      2  UNL2      0.4072 
    253 C     0.0264  -1.6918   3.2094      C1     17  UNL1      0.2624 
    254 C    -1.1113  -2.2634   3.2502      C3      2  UNL2      0.4842 
    255 C    -0.3384  -2.6673   3.3971      C3     17  UNL1      0.4072 
    256 C    -1.8321  -3.9374   2.7807      C2     19  UNL1      0.6561 
    257 C    -0.2345  -3.4592   3.3309      C3     18  UNL1      0.4389 
    258 C     0.0143  -3.9180   3.1916      C3      2  UNL2      0.4344 
    259 C     0.1778  -4.4023   2.9550      C3      2  UNL2      0.4344 
    260 C     0.3485  -4.8999   2.5866      C2      2  UNL2      0.4344 
    261 C    -0.3384  -2.6673   3.3971      C3      2  UNL2      0.4072 
    262 C     0.7040  -2.6485   3.2589      C3      2  UNL2      0.3303 
    263 C    -2.7644  -4.4305   1.5932      C3      2  UNL2      0.8235 
    264 C    -2.2193  -4.9631   1.7120      C3      2  UNL2      0.6787 
    265 C    -0.9346  -5.6445   1.6976      C3      2  UNL2      0.5204 
    266 C    -2.5490  -5.1835   0.7185      C3     19  UNL1      0.7149 
    267 C    -2.1274  -5.6120  -0.1625      C3      2  UNL2      0.6335 
    268 C     1.9155  -4.7785   1.6852      C3      2  UNL2      0.3710 
    269 C     0.5870  -5.5756   1.7381      C3      2  UNL2      0.4299 
    270 C     0.2619  -6.0091   0.9222      C3      2  UNL2      0.4480 
    271 C     0.5870  -5.5756   1.7381      C3      2  UNL2      0.4299 
    272 C     1.1083  -5.6741   1.1442      C3      2  UNL2      0.4072 
    273 C     1.4754  -5.6169   0.7076      C3     20  UNL2      0.3937 
    274 C     1.8611  -5.4189   0.3180      C3      2  UNL2      0.3801 
    275 C     2.1565  -5.1638  -0.2127      C3      2  UNL2      0.3710 
    276 C    -2.6399  -4.4578  -1.7484      C3      2  UNL2      0.7919 
    277 C    -2.2044  -2.9972  -2.7781      C3     21  UNL2      0.8009 
    278 C    -1.6467  -3.2845  -3.0612      C3      2  UNL2      0.6335 
    279 C    -0.4815  -5.8123  -1.5171      C3      2  UNL2      0.4887 
    280 C     0.2868  -5.6434  -1.7475      C3      2  UNL2      0.4434 
    281 C     1.0238  -5.3678  -1.7927      C3      2  UNL2      0.4072 
    282 C    -1.3024  -5.7508  -1.2758      C3      2  UNL2      0.5475 
    283 C    -1.2256  -5.4327  -1.8901      C3      2  UNL2      0.5475 
    284 C    -1.0448  -5.0886  -2.3663      C2      2  UNL2      0.5339 
    285 C    -0.8367  -4.6111  -2.8041      C1      2  UNL2      0.5158 
    286 C     2.3202  -4.5876  -1.2830      C2      2  UNL2      0.3575 
    287 C     2.0390  -4.3735  -1.9353      C3      2  UNL2      0.3575 
    288 C    -2.2466  -3.3588   2.6947      C3      2  UNL2      0.7873 
    289 C    -0.7607  -5.1805   2.3521      C3      2  UNL2      0.5068 
    290 C    -1.6082  -4.8376   2.3430      C2      2  UNL2      0.5973 
    291 C    -1.0591  -4.4494   2.8497      C3      2  UNL2      0.5385 
    292 C    -1.1588  -6.0212  -0.4759      C3      2  UNL2      0.5294 
    293 C    -0.7101  -6.1434   0.1647      C3      2  UNL2      0.4977 
    294 C    -0.5479  -6.0439   0.8987      C2      2  UNL2      0.4887 
    295 C    -1.5554  -5.9050   0.3054      C3      2  UNL2      0.5656 
    296 C    -1.7387  -5.6567   1.0366      C3      2  UNL2      0.5882 
    297 C    -2.1957  -5.2875  -1.2250      C3      2  UNL2      0.6561 
    298 C    -3.1290  -4.2114  -1.1195      C3      2  UNL2      0.9593 
    299 C    -2.6284  -5.1504  -0.5521      C3      2  UNL2      0.7285 
    300 C     1.3806  -5.6559  -0.7727      C3      2  UNL2      0.3982 
    301 C     0.4265  -6.0266  -0.7345      C3      2  UNL2      0.4389 
    302 C     0.8980  -5.9751  -0.0714      C3      2  UNL2      0.4208 
    303 C     0.0411  -1.7608  -3.2307      C3      2  UNL2      0.2715 
    304 C    -1.0544  -2.2868  -3.2684      C3      2  UNL2      0.4751 
    305 C    -0.9325  -3.4658  -3.2604      C3      2  UNL2      0.5158 
    306 C    -1.3300  -4.1273  -2.9303      C3      2  UNL2      0.5701 
    307 C    -1.9619  -4.4267  -2.4357      C3      2  UNL2      0.6606 
    308 C    -2.3297  -3.7735  -2.5041      C3      2  UNL2      0.7783 
    309 C    -0.0315  -4.1759  -3.0912      C3      2  UNL2      0.4434 
    310 C     0.5992  -4.8857  -2.5270      C3      2  UNL2      0.4208 
    311 C    -0.0997  -4.9746  -2.5904      C3      2  UNL2      0.4615 
    312 C    -2.5507   1.5976  -3.3996      C3      2  UNL2      -0.6043
    313 C    -2.7191   1.7126   3.3965      C3     22  UNL2      -0.5920
    314 C    -2.3542   2.6881   3.2087      C3     23  UNL2      -0.7454
    315 C    -3.4919   2.1165   3.2496      C2      2  UNL2      -0.5460
    316 C    -4.0207   2.5250   2.9647      C3      2  UNL2      -0.5460
    317 C    -2.7191   1.7126   3.3965      C1      2  UNL2      -0.5920
    318 C    -2.6152   0.9207   3.3302      C1      2  UNL2      -0.4816
    319 C    -2.7191   1.7126   3.3965      C3      2  UNL2      -0.5920
    320 C    -1.4479   2.5955  -3.0271      C2      2  UNL2      -0.8865
    321 C    -5.1243   2.9189  -1.9084      C3     24  UNL2      -0.5092
    322 C    -2.3396   2.6190  -3.2314      C2      2  UNL2      -0.7423
    323 C    -3.4350   2.0931  -3.2691      C1      2  UNL2      -0.5491
    324 C    -4.2664   2.1369  -2.9365      C1      2  UNL2      -0.4693
    325 C    -3.6908   2.8029  -3.0019      C3      2  UNL2      -0.6074
    326 C    -4.6318   2.7165  -2.5184      C3      2  UNL2      -0.5184
    327 C    -3.3132   0.9140  -3.2610      C3     25  UNL2      -0.3712
    328 C    -5.1651   1.7135   2.5927      C3      2  UNL2      -0.2945
    329 C    -5.4349   2.7259  -1.7222      C3      2  UNL2      -0.4479
    330 C    -5.8560   0.9821   2.2619      C3      2  UNL2      -0.0767
    331 C    -4.7498   1.3952  -2.8674      C3     26  UNL2      -0.2822
    332 C    -5.0961   2.0245  -2.4970      C1     29  UNL2      -0.3620
    333 C    -3.4162  -4.0173  -1.2358      C2      2  UNL2      0.9910 
    334 C    -2.2716  -2.0908   2.9844      C2      2  UNL2      0.7330 
    335 C    -3.4162  -4.0173  -1.2358      C3      2  UNL2      0.9910 
    336 C    -3.2700  -3.6479  -1.9033      C3      2  UNL2      0.9774 
    337 C    -3.0540  -3.2529  -2.3613      C3      2  UNL2      0.9457 
    338 C    -2.8798  -2.6659  -2.7674      C3      2  UNL2      0.8778 
    339 C    -2.7909  -3.5424   2.1336      C3     27  UNL2      0.9593 
    340 C    -3.4791  -4.2668  -0.0171      C3      2  UNL2      0.9910 
    341 C    -3.6863  -0.6412  -3.3987      C3      2  UNL2      0.2036 
    342 C    -3.8547  -0.5261   3.3974      C3      2  UNL2      0.1719 
    343 C    -3.4899   0.4494   3.2097      C3      2  UNL2      -0.2117
    344 C    -4.6276  -0.1222   3.2505      C3      2  UNL2      0.0905 
    345 C    -5.1563   0.2863   2.9656      C3      2  UNL2      0.0136 
    346 C    -3.8547  -0.5261   3.3974      C2      2  UNL2      0.1719 
    347 C    -3.7508  -1.3181   3.3312      C3      2  UNL2      0.4480 
    348 C    -3.5020  -1.7768   3.1919      C2      2  UNL2      0.6109 
    349 C    -3.3385  -2.2612   2.9553      C2      2  UNL2      0.7783 
    350 C    -3.8547  -0.5261   3.3974      C3      2  UNL2      0.1719 
    351 C    -2.8123  -0.5073   3.2592      C3     28  UNL2      0.0860 
    352 C    -5.1629  -1.1434  -3.0609      C3      2  UNL2      0.4163 
    353 C    -4.3529  -2.4700  -2.8038      C2      2  UNL2      0.7240 
    354 C    -2.6203  -1.0533  -3.1713      C3      2  UNL2      0.3710 
    355 C    -4.5754  -2.3083   2.8501      C3      2  UNL2      0.6787 
    356 C    -3.4752   0.3803  -3.2304      C3      2  UNL2      -0.1902
    357 C    -4.5707  -0.1457  -3.2681      C3      2  UNL2      0.0905 
    358 C    -5.4021  -0.1018  -2.9356      C3      2  UNL2      0.1584 
    359 C    -4.8265   0.5642  -3.0010      C2      2  UNL2      -0.0828
    360 C    -5.7675   0.4778  -2.5174      C3     29  UNL2      0.0317 
    361 C    -4.4488  -1.3247  -3.2601      C1      2  UNL2      0.4434 
    362 C    -3.5478  -2.0347  -3.0909      C3      2  UNL2      0.6878 
    363 C    -3.6160  -2.8335  -2.5901      C3      2  UNL2      0.8869 
    364 C    -1.9679   5.4339   1.3579      C2      2  UNL2      -0.7147
    365 C    -4.8777   4.4532   1.3771      C1      2  UNL2      -0.5706
    366 C    -0.5073   4.4180  -1.3439      C3      2  UNL2      -0.9601
    367 C    -3.5534   5.4167  -1.3377      C3      2  UNL2      -0.6288
    368 C    -3.2794   4.5955   2.4017      C3      2  UNL2      -0.6626
    369 C    -1.2872   3.9464   2.4354      C3      2  UNL2      -0.8834
    370 C    -3.5889   5.6524   0.6708      C3      2  UNL2      -0.6227
    371 C    -0.2799   4.5449   0.5742      C3      2  UNL2      -0.9785
    372 C    -1.8017   5.6720  -0.5146      C3      2  UNL2      -0.7147
    373 C    -5.1218   4.5995  -0.5295      C3      2  UNL2      -0.5583
    374 C    -2.1352   4.6073  -2.3883      C3      2  UNL2      -0.7423
    375 C    -4.2065   3.9397  -2.4002      C3      2  UNL2      -0.6104
    376 C    -3.0101   3.7446   2.8809      C1     17  UNL1      -0.6994
    377 C    -2.0145   3.4150   2.8976      C3      2  UNL2      -0.8190
    378 C    -2.5557   5.1362   1.9613      C3     30  UNL3      -0.6933
    379 C    -1.5748   4.8233   1.9807      C3     31  UNL3      -0.7791
    380 C    -1.0759   5.1336   1.0931      C3      2  UNL2      -0.8037
    381 C    -1.8175   5.6762   0.5197      C3     32  UNL3      -0.7117
    382 C    -4.2110   4.5022   2.0427      C3      2  UNL2      -0.6074
    383 C    -4.8645   3.7184   1.9534      C3      2  UNL2      -0.5644
    384 C    -4.3562   5.1257   1.1083      C3      2  UNL2      -0.5951
    385 C    -5.4006   3.6996   1.1214      C3      2  UNL2      -0.5276
    386 C    -5.1943   4.5075   0.4963      C3     33  UNL3      -0.5552
    387 C    -0.2753   4.5722  -0.4597      C1     37  UNL3      -0.9724
    388 C    -1.0123   5.1216  -1.0180      C1     37  UNL3      -0.8098
    389 C    -1.1951   4.6077  -1.9307      C3      2  UNL2      -0.8344
    390 C    -3.6748   5.6651  -0.4684      C3      2  UNL2      -0.6196
    391 C    -2.7264   5.6719  -1.0490      C3      2  UNL2      -0.6626
    392 C    -4.3888   5.1152  -1.0805      C3      2  UNL2      -0.5951
    393 C    -2.9488   5.1236  -1.9681      C3     34  UNL3      -0.6687
    394 C    -3.9351   4.8069  -1.9495      C3      2  UNL2      -0.6227
    395 C    -5.4568   3.6684  -1.0026      C3      2  UNL2      -0.5245
    396 C    -4.9662   3.2928  -1.9876      C3     35  UNL3      -0.5460
    397 C    -2.4362   3.6706  -2.9045      C1      2  UNL2      -0.7546
    398 C    -3.4478   3.3606  -2.9000      C1      2  UNL2      -0.6656
    399 C    -0.7115   4.3284   1.7166      C3      2  UNL2      -0.9356
    400 C    -2.8262   5.8533   0.1438      C3      2  UNL2      -0.6503
    401 C    -4.4160   5.3348   0.1401      C3      2  UNL2      -0.5890
    402 C    -0.8458   5.2136   0.0989      C3      2  UNL2      -0.8190
    403 C    -1.8766   5.3484  -1.4621      C3      2  UNL2      -0.7270
    404 C    -5.6457   3.6282   0.0335      C1      2  UNL2      -0.5123
    405 C    -4.9354   4.2829  -1.4730      C1      2  UNL2      -0.5675
    406 C    -1.5091   3.8620  -2.5876      C3      2  UNL2      -0.8589
    407 C    -3.0748   4.3569  -2.5971      C3      2  UNL2      -0.6810
    408 C    -7.0155   0.4304   1.3773      C3     36  UNL3      0.1493 
    409 C    -7.0544  -2.7985   1.3624      C3      2  UNL2      0.5158 
    410 C    -4.0094  -3.7939   1.3504      C3      2  UNL2      0.9683 
    411 C    -7.5711  -1.1870  -1.3616      C3      2  UNL2      0.3756 
    412 C    -5.6823  -3.7928  -1.3608      C3      2  UNL2      0.6742 
    413 C    -6.6618  -1.1254   2.4428      C3      2  UNL2      0.3846 
    414 C    -5.4407  -2.9312   2.4322      C3      2  UNL2      0.6425 
    415 C    -7.8327  -1.1844   0.6047      C3      2  UNL2      0.3756 
    416 C    -7.2596   0.5767  -0.5294      C3      2  UNL2      0.1357 
    417 C    -5.7676  -4.0411   0.5980      C2      2  UNL2      0.6742 
    418 C    -7.2745  -2.9612  -0.5404      C3      2  UNL2      0.5113 
    419 C    -3.9282  -4.0486  -0.5422      C3      2  UNL2      1.0000 
    420 C    -6.3443  -0.0831  -2.4000      C3      2  UNL2      0.2217 
    421 C    -6.3665  -2.2711  -2.4107      Car     2  UNL2      0.5113 
    422 C    -5.7635  -1.1330   2.9002      C3      2  UNL2      0.4027 
    423 C    -5.1475  -2.0316   2.9108      C3     37  UNL3      0.5747 
    424 C    -6.3488   0.4795   2.0428      C3      2  UNL2      0.0950 
    425 C    -7.0022  -0.3043   1.9536      C3      2  UNL2      0.2760 
    426 C    -7.5383  -0.3232   1.1215      C3      2  UNL2      0.2851 
    427 C    -7.3321   0.4847   0.4964      C3      2  UNL2      0.1584 
    428 C    -6.9894  -2.1131   1.9633      C3      2  UNL2      0.4706 
    429 C    -6.3717  -2.9678   1.9564      C2      2  UNL2      0.5656 
    430 C    -7.5586  -2.1033   1.0563      C3      2  UNL2      0.4525 
    431 C    -6.5427  -3.4984   1.0605      C2      2  UNL2      0.5837 
    432 C    -7.2718  -2.9829   0.4785      C3      2  UNL2      0.5158 
    433 C    -4.6052  -3.4931   1.9855      C3      2  UNL2      0.8100 
    434 C    -4.8433  -4.0428   1.0883      Car     2  UNL2      0.7964 
    435 C    -7.8514  -1.3021  -0.4936      Car     2  UNL2      0.3846 
    436 C    -7.5946  -0.3543  -1.0024      Car     2  UNL2      0.2896 
    437 C    -7.5658  -2.0754  -1.0604      Car     2  UNL2      0.4480 
    438 C    -7.1040  -0.7299  -1.9875      C3      2  UNL2      0.3303 
    439 C    -7.1308  -1.8031  -1.9222      C3      2  UNL2      0.4434 
    440 C    -5.7942  -4.0514  -0.4988      C3      2  UNL2      0.6742 
    441 C    -6.5145  -3.5180  -1.0618      C3      2  UNL2      0.5882 
    442 C    -4.8591  -4.0529  -1.0606      C3      2  UNL2      0.7964 
    443 C    -6.0637  -3.1952  -1.9520      C3      2  UNL2      0.6018 
    444 C    -5.0469  -3.5052  -1.9766      C2      2  UNL2      0.7330 
    445 C    -5.5856  -0.6621  -2.8999      C3      2  UNL2      0.3213 
    446 C    -5.5911  -1.7317  -2.9011      C3      2  UNL2      0.4977 
    447 C    -6.2396  -2.0224   2.5793      C3      2  UNL2      0.4977 
    448 C    -7.3545  -1.2555   1.7277      C3      2  UNL2      0.3891 
    449 C    -4.4948  -2.7170   2.6127      C3      2  UNL2      0.7602 
    450 C    -5.6339  -3.5870   1.7193      C3      2  UNL2      0.6652 
    451 C    -7.7835  -0.3946   0.0337      C3      2  UNL2      0.2941 
    452 C    -7.7672  -2.0620   0.1254      C3      2  UNL2      0.4389 
    453 C    -7.0731   0.2601  -1.4728      C3      2  UNL2      0.1855 
    454 C    -6.5550  -3.7217   0.0892      C3      2  UNL2      0.5928 
    455 C    -4.9564  -4.2414   0.0738      C3      2  UNL2      0.7873 
    456 C    -6.9891  -2.7835  -1.4780      C3     42  UNL4      0.5158 
    457 C    -3.9853  -3.7097  -1.4860      C2     19  UNL1      0.9729 
    458 C    -6.4473  -1.0652  -2.5845      C3     42  UNL4      0.3801 
    459 C    -5.4745  -2.6881  -2.5790      C3      2  UNL2      0.6154 
    460 C     1.2452  -3.0071   3.0737      C3      2  UNL2      0.3303 
    461 C     0.3966  -4.0964   3.0961      C3      2  UNL2      0.4118 
    462 C     0.3966  -4.0964   3.0961      C3      2  UNL2      0.4118 
    463 C     1.5820  -4.1135   2.6447      C3      2  UNL2      0.3529 
    464 C     1.7697  -4.2205  -2.4150      C3      2  UNL2      0.3529 
    465 C     1.3905  -3.2212  -3.0054      C3      2  UNL2      0.3303 
    466 C     0.8842  -4.4484  -2.8127      C3     38  UNL3      0.3891 
    467 C    -3.0788  -4.6708  -0.3385      C3      2  UNL2      0.8643 
    468 C    -6.3089   2.2987   1.3744      C3      2  UNL2      -0.2577
    469 C    -6.3089   2.2987   1.3744      C3     19  UNL1      -0.2577
    470 C    -6.8389   2.1957   0.2475      C1     29  UNL2      -0.1902
    471 C    -5.9488   2.4150  -1.6394      C2      2  UNL2      -0.3190
    472 C    -6.9139   1.6308  -0.7024      C3      2  UNL2      -0.1043
    473 C    -6.3694   1.4142  -1.6681      C3     39  UNL3      -0.1135
    474 C    -6.2805   1.0915   1.7590      C3      2  UNL2      -0.0613
    475 C    -5.8698   3.2772   0.3307      C3      2  UNL2      -0.4509
    476 C    -6.9929   1.1448   0.5291      C3      2  UNL2      -0.0153
    477 C    -6.4077   2.7622  -0.5910      C3      2  UNL2      -0.3067

