@<TRIPOS>MOLECULE
*****
 485 0 0 0 0
SMALL
GASTEIGER

@<TRIPOS>ATOM
      1 C     -4.0147  -0.5999   3.5339     C3      1  UNL1        0.8602
      2 C     -5.0553  -3.4945  -1.1750     C3      2  UNL2        0.8280
      3 C     -4.0702  -0.4171  -3.2633     C3      3  UNL3        0.8387
      4 C     -3.7444   0.2069   3.4418     C3      2  UNL2        0.8280
      5 C     -4.6038  -0.1615   3.4684     C3      2  UNL2        0.9032
      6 C     -4.9484   0.2142   3.3273     C3      2  UNL2        0.9247
      7 C     -4.0147  -0.5999   3.5339     C3      2  UNL2        0.8602
      8 C     -4.7494  -1.1410   3.4029     C3      4  UNL4        0.9032
      9 C     -5.2306  -1.6326   3.1216     C3      4  UNL4        0.9140
     10 C     -3.7979  -1.3556   3.4229     C3      4  UNL4        0.7849
     11 C     -6.9612  -0.9212   1.8321     C3      2  UNL2        0.9785
     12 C     -6.4008  -2.3050   1.8164     C3      4  UNL4        0.9355
     13 C     -5.8591  -2.8440   1.8320     C2      2  UNL2        0.9032
     14 C     -5.3059  -3.2001   1.8103     C2      4  UNL4        0.8495
     15 C     -6.4008  -2.3050   1.8164     C3      2  UNL2        0.9355
     16 C     -7.2519  -1.4723  -0.4641     Car     2  UNL2        0.9677
     17 C     -5.9556  -3.3347   0.1964     C3      2  UNL2        0.8925
     18 C     -6.9903  -1.0229  -1.4834     C3      2  UNL2        0.9785
     19 C     -6.6493  -1.6498  -1.7351     C3      2  UNL2        0.9677
     20 C     -6.1131  -0.6633  -2.5579     C3      2  UNL2        0.9785
     21 C     -5.3971  -0.8004  -2.9712     C3      2  UNL2        0.9462
     22 C     -5.0553  -3.4945  -1.1750     C3      2  UNL2        0.8280
     23 C     -5.0553  -3.4945  -1.1750     C3      2  UNL2        0.8280
     24 C     -4.9148  -3.0975  -1.9098     C3      2  UNL2        0.8495
     25 C     -4.6852  -2.7612  -2.3443     C3      2  UNL2        0.8495
     26 C     -4.6367  -2.2111  -2.7571     C2      2  UNL2        0.8817
     27 C     -6.3902  -1.5657   2.3626     C3      2  UNL2        0.9570
     28 C     -6.5112  -0.7449   2.4617     C3      2  UNL2        0.9677
     29 C     -6.4174   0.1146   2.4817     C3      2  UNL2        1.0000
     30 C     -5.9039  -1.2623   2.8825     C2      2  UNL2        0.9462
     31 C     -5.9299  -0.3701   2.9582     C3      2  UNL2        0.9677
     32 C     -5.1029  -2.6066   2.6051     C3      5  UNL5        0.8710
     33 C     -7.4179  -0.9238   0.1940     C3      2  UNL2        0.9785
     34 C     -7.2172  -1.4440   0.9306     C3      2  UNL2        0.9677
     35 C     -7.3132  -0.7812   1.0253     C3      2  UNL2        0.9785
     36 C     -5.2115  -3.7077   0.3863     C2      2  UNL2        0.8172
     37 C     -6.7628  -2.0600  -1.2071     C2      2  UNL2        0.9570
     38 C     -5.5256  -2.3297  -2.3353     C2      2  UNL2        0.9247
     39 C     -5.3259  -1.5262  -2.8499     C3      2  UNL2        0.9355
     40 C     -6.0883  -1.5540  -2.3778     C3      2  UNL2        0.9570
     41 C     -3.7235  -1.3855  -3.1390     C3      2  UNL2        0.8172
     42 C     -4.1510   0.9046  -3.4303     C3      2  UNL2        0.5806
     43 C     -4.3194   1.0196   3.3658     C3      2  UNL2        0.7527
     44 C     -3.9545   1.9952   3.1780     C3      2  UNL2        0.5161
     45 C     -5.0922   1.4236   3.2189     C3      2  UNL2        0.7527
     46 C     -5.6210   1.8321   2.9340     C3      2  UNL2        0.7634
     47 C     -4.3194   1.0196   3.3658     C3      2  UNL2        0.7527
     48 C     -4.3194   1.0196   3.3658     C3      2  UNL2        0.7527
     49 C     -3.2769   1.0385   3.2276     C2      2  UNL2        0.6452
     50 C     -4.8918   2.9291  -2.6868     C2      2  UNL2        0.4839
     51 C     -5.6276   0.4024  -3.0925     C3      6  UNL6        0.8387
     52 C     -6.2275   0.3282   2.6633     C3      2  UNL2        0.9785
     53 C     -5.0353   1.4001  -3.2997     C3      2  UNL2        0.6344
     54 C     -4.9134   0.2211  -3.2917     C2      2  UNL2        0.7957
     55 C     -6.3107  -0.0865  -2.5354     C1      2  UNL2        0.9570
     56 C     -2.1306   4.4820   1.5760     C1      2  UNL2        -0.1043
     57 C     -2.9196   1.6791  -3.5442     C3      2  UNL2        0.2043
     58 C     -3.0880   1.7941   3.2520     C3      2  UNL2        0.3978
     59 C     -2.7231   2.7697   3.0642     C3      2  UNL2        0.1398
     60 C     -2.5198   3.3599   2.7726     C3      2  UNL2        0.0215
     61 C     -3.8608   2.1981   3.1050     C3      2  UNL2        0.4624
     62 C     -3.0880   1.7941   3.2520     C3      2  UNL2        0.3978
     63 C     -2.9841   1.0022   3.1857     C2      2  UNL2        0.6022
     64 C     -3.0880   1.7941   3.2520     C1      2  UNL2        0.3978
     65 C     -2.1306   4.4820   1.5760     C3      2  UNL2        -0.1043
     66 C     -3.0287   4.5125   1.7407     C3      2  UNL2        0.0215
     67 C     -3.6196   4.4072   1.7952     C2      5  UNL5        0.1183
     68 C     -2.1306   4.4820   1.5760     C2      2  UNL2        -0.1043
     69 C     -1.4241   4.0360   1.7319     C2      2  UNL2        -0.2348
     70 C     -1.5206   4.6143   0.7293     C2      2  UNL2        -0.2174
     71 C     -1.1755   4.5238   0.2326     C3      2  UNL2        -0.2957
     72 C     -2.1306   4.4820   1.5760     C3      5  UNL5        -0.1043
     73 C     -2.4578   4.8970   0.8211     C2      5  UNL5        -0.0609
     74 C     -1.9678   4.3272  -2.0143     C3      7  UNL7        -0.1478
     75 C     -1.8168   2.6771  -3.1716     C3      2  UNL2        -0.1478
     76 C     -3.8342   4.6307  -1.6246     C2      4  UNL4        0.1398
     77 C     -4.5137   4.2424  -1.8003     C2      2  UNL2        0.2796
     78 C     -3.8342   4.6307  -1.6246     C3      2  UNL2        0.1398
     79 C     -3.6604   3.7036  -2.8006     C3      2  UNL2        0.1183
     80 C     -4.1263   3.4469   2.5372     C3      2  UNL2        0.3118
     81 C     -4.6510   4.6591  -0.1483     C2      4  UNL4        0.3118
     82 C     -4.8583   4.4252   0.6370     C2      4  UNL4        0.3871
     83 C     -4.1793   4.6783   0.9570     C3      8  UNL8        0.2151
     84 C     -1.4697   4.4410  -1.4088     C3      2  UNL2        -0.2348
     85 C     -1.6342   4.7340  -0.7561     C3      2  UNL2        -0.1913
     86 C     -2.7085   2.7006  -3.3759     C3      2  UNL2        0.0323
     87 C     -2.9391   3.4201  -3.0676     C2      2  UNL2        0.0108
     88 C     -2.5206   3.9485  -2.6342     C3      2  UNL2        -0.0609
     89 C     -1.8424   3.4943  -2.7772     C2      9  UNL9        -0.1652
     90 C     -3.8039   2.1746  -3.4136     C3     10  UNL1        0.2903
     91 C     -4.0597   2.8845  -3.1465     C3      2  UNL2        0.2581
     92 C     -4.4403   3.4482  -2.6728     C2      2  UNL2        0.3011
     93 C     -3.6821   0.9956  -3.4055     C3     11  UNL1        0.5054
     94 C     -0.8861   3.9073   1.6217     C3      2  UNL2        -0.3826
     95 C     -1.6750   1.1045  -3.4985     C3      2  UNL2        -0.0522
     96 C     -1.8434   1.2195   3.2976     C3      2  UNL2        0.1935
     97 C     -1.4786   2.1950   3.1098     C2      2  UNL2        -0.1130
     98 C     -1.2753   2.7852   2.8182     C3      2  UNL2        -0.2261
     99 C     -1.8434   1.2195   3.2976     C3      2  UNL2        0.1935
    100 C     -1.8434   1.2195   3.2976     C3      2  UNL2        0.1935
    101 C     -0.8010   1.2383   3.1594     C3      2  UNL2        -0.1478
    102 C     -0.1858   1.3018   2.9071     C3      2  UNL2        -0.3391
    103 C     -0.8861   3.9073   1.6217     C3     12  UNL1        -0.3826
    104 C     -0.8861   3.9073   1.6217     C3     13  UNL1        -0.3826
    105 C     -0.1796   3.4614   1.7776     C1     12  UNL1        -0.6087
    106 C      0.2417   3.1417   1.7484     C3      2  UNL2        -0.7565
    107 C     -0.2760   4.0396   0.7749     C2      2  UNL2        -0.5565
    108 C      0.0691   3.9491   0.2783     C2      2  UNL2        -0.6696
    109 C     -0.8861   3.9073   1.6217     C3      2  UNL2        -0.3826
    110 C      0.1704   3.3168  -1.8182     C3      2  UNL2        -0.7478
    111 C     -0.7232   3.7525  -1.9687     C3      2  UNL2        -0.4435
    112 C      0.2272   2.4843  -2.4900     C3      2  UNL2        -0.7826
    113 C     -0.5723   2.1024  -3.1260     C2     13  UNL1        -0.4870
    114 C     -0.6090   0.6923  -3.2711     C2      2  UNL2        -0.2783
    115 C      0.0525   2.1666   2.5746     C2      2  UNL2        -0.6000
    116 C     -0.2251   3.8663  -1.3631     C3      2  UNL2        -0.5826
    117 C     -0.3896   4.1593  -0.7104     C2      2  UNL2        -0.5217
    118 C     -1.4639   2.1259  -3.3303     C3      2  UNL2        -0.2174
    119 C     -1.2760   3.3738  -2.5885     C3      2  UNL2        -0.2957
    120 C     -0.5978   2.9196  -2.7316     C2     13  UNL1        -0.4957
    121 C     -0.0820   1.5429  -3.0239     C3      2  UNL2        -0.5913
    122 C     -2.4375   0.4209  -3.3599     C2      2  UNL2        0.3333
    123 C     -1.5038  -0.3116  -3.3339     C3      2  UNL2        0.1613
    124 C     -1.6721  -0.1966   3.4622     C3     13  UNL1        0.2796
    125 C     -1.3073   0.7790   3.2744     C3     14  UNL1        0.0968
    126 C     -2.4450   0.2074   3.3153     C3     15  UNL1        0.5699
    127 C     -1.6721  -0.1966   3.4622     C3      2  UNL2        0.2796
    128 C     -1.5682  -0.9885   3.3959     C3      2  UNL2        0.1183
    129 C     -1.6721  -0.1966   3.4622     C3      9  UNL9        0.2796
    130 C     -2.2662  -0.9951  -3.1953     C2      9  UNL9        0.4624
    131 C     -2.7038  -1.0888  -3.2203     C3      2  UNL2        0.5806
    132 C     -2.8722  -0.9738   3.5758     C3      2  UNL2        0.5591
    133 C     -2.5074   0.0017   3.3880     C3      2  UNL2        0.5806
    134 C     -2.8722  -0.9738   3.5758     C3      2  UNL2        0.5591
    135 C     -2.7683  -1.7657   3.5095     C3      9  UNL9        0.4516
    136 C     -2.5195  -2.2245   3.3703     C3      2  UNL2        0.3011
    137 C     -2.3560  -2.7088   3.1337     C3     16  UNL1        0.1828
    138 C     -2.1853  -3.2064   2.7653     C3      2  UNL2        0.0753
    139 C     -2.8722  -0.9738   3.5758     C3      2  UNL2        0.5591
    140 C     -1.8298  -0.9550   3.4375     C3      2  UNL2        0.2366
    141 C     -3.4684  -3.9510   1.8763     C3      2  UNL2        0.4086
    142 C     -4.6612  -3.9186   0.0161     C3      2  UNL2        0.7204
    143 C     -1.9468  -3.8821   1.9167     C3      2  UNL2        -0.0348
    144 C     -1.9468  -3.8821   1.9167     C3      2  UNL2        -0.0348
    145 C     -1.4255  -3.9806   1.3229     C3      2  UNL2        -0.2609
    146 C     -3.0153  -4.1188  -1.3385     C3      2  UNL2        0.2903
    147 C     -2.2470  -3.9499  -1.5689     C3      2  UNL2        0.0538
    148 C     -1.5100  -3.6743  -1.6140     C3      2  UNL2        -0.3652
    149 C     -3.8361  -4.0573  -1.0972     C3      2  UNL2        0.5161
    150 C     -3.7594  -3.7393  -1.7114     C3      2  UNL2        0.5376
    151 C     -3.5786  -3.3951  -2.1876     C3      2  UNL2        0.5269
    152 C     -3.3704  -2.9176  -2.6254     C3      2  UNL2        0.5376
    153 C     -3.2944  -3.4870   2.5308     C3      2  UNL2        0.3978
    154 C     -4.1420  -3.1441   2.5216     C3      2  UNL2        0.6667
    155 C     -3.5929  -2.7559   3.0284     C3      2  UNL2        0.5591
    156 C     -3.6926  -4.3277  -0.2973     C3      2  UNL2        0.4516
    157 C     -4.0892  -4.2115   0.4840     C2      2  UNL2        0.5484
    158 C     -4.2725  -3.9632   1.2152     C3      2  UNL2        0.6129
    159 C     -2.1073  -4.3331  -0.5558     C3      2  UNL2        -0.0087
    160 C     -3.4663  -1.7724  -3.0817     C3      2  UNL2        0.7097
    161 C     -3.8638  -2.4338  -2.7517     C3      2  UNL2        0.7527
    162 C     -1.7998  -2.3276  -2.8270     C3      2  UNL2        0.0000
    163 C     -2.5653  -2.4824  -2.9125     C3      2  UNL2        0.3656
    164 C     -1.9346  -3.1922  -2.3483     C3      2  UNL2        0.0645
    165 C     -2.6335  -3.2811  -2.4117     C3      2  UNL2        0.2581
    166 C     -7.5409   3.0737   1.3032     C3      2  UNL2        0.6237
    167 C     -7.5798  -0.1552   1.2883     C3      2  UNL2        0.8817
    168 C     -6.2166   4.0373  -1.4116     C3      2  UNL2        0.5054
    169 C     -8.0965   1.4563  -1.4357     C3      2  UNL2        0.6989
    170 C     -5.9426   3.2160   2.3278     C3      2  UNL2        0.6022
    171 C     -7.1872   1.5179   2.3687     C3      2  UNL2        0.7527
    172 C     -6.2521   4.2729   0.5968     C3      2  UNL2        0.5054
    173 C     -8.3581   1.4589   0.5306     C3      2  UNL2        0.7097
    174 C     -7.7850   3.2200  -0.6035     C3      2  UNL2        0.6129
    175 C     -7.7999  -0.3179  -0.6145     C3      2  UNL2        0.8602
    176 C     -6.8697   2.5603  -2.4741     C3      2  UNL2        0.6237
    177 C     -6.8918   0.3722  -2.4848     C3      2  UNL2        0.8387
    178 C     -5.6733   2.3652   2.8069     C3      2  UNL2        0.6989
    179 C     -6.2889   1.5104   2.8261     C3      2  UNL2        0.7957
    180 C     -5.2189   3.7567   1.8873     C3      2  UNL2        0.4946
    181 C     -6.8741   3.1228   1.9687     C3      2  UNL2        0.6129
    182 C     -7.5276   2.3390   1.8795     C3      2  UNL2        0.6667
    183 C     -7.0194   3.7463   1.0344     C3      2  UNL2        0.5699
    184 C     -8.0637   2.3202   1.0474     C3      2  UNL2        0.6667
    185 C     -7.8575   3.1280   0.4223     C3      2  UNL2        0.6237
    186 C     -7.5148   0.5302   1.8893     C3      2  UNL2        0.8280
    187 C     -8.0840   0.5401   0.9822     C3      2  UNL2        0.7849
    188 C     -7.7972  -0.3396   0.4044     C3      2  UNL2        0.8817
    189 C     -6.3380   4.2857  -0.5424     C3      2  UNL2        0.5054
    190 C     -5.3896   4.2924  -1.1229     C3      2  UNL2        0.4409
    191 C     -7.0519   3.7358  -1.1545     C3      2  UNL2        0.5591
    192 C     -5.6120   3.7442  -2.0420     C3      2  UNL2        0.4839
    193 C     -6.5983   3.4275  -2.0234     C3      2  UNL2        0.5591
    194 C     -8.3768   1.3412  -0.5677     C2      2  UNL2        0.7097
    195 C     -8.1199   2.2890  -1.0765     C3      2  UNL2        0.6559
    196 C     -8.0912   0.5680  -1.1345     C3      2  UNL2        0.7634
    197 C     -7.6293   1.9134  -2.0616     C3      2  UNL2        0.6667
    198 C     -7.6561   0.8402  -1.9963     C3      2  UNL2        0.7527
    199 C     -6.1110   1.9812  -2.9740     C3      2  UNL2        0.6559
    200 C     -6.1165   0.9116  -2.9752     C3      2  UNL2        0.7957
    201 C     -6.7650   0.6209   2.5052     C3      2  UNL2        0.8817
    202 C     -7.8799   1.3879   1.6536     C3      2  UNL2        0.7312
    203 C     -5.4894   4.4739   0.0699     C3      2  UNL2        0.4409
    204 C     -7.0791   3.9554   0.0662     C3      2  UNL2        0.5591
    205 C     -8.3089   2.2487  -0.0404     C3      2  UNL2        0.6667
    206 C     -8.2926   0.5813   0.0513     C3      2  UNL2        0.7634
    207 C     -7.5985   2.9035  -1.5469     C3      2  UNL2        0.6129
    208 C     -7.5145  -0.1402  -1.5521     C3      2  UNL2        0.8602
    209 C     -5.7380   2.9775  -2.6710     C3      2  UNL2        0.5484
    210 C     -6.9726   1.5781  -2.6586     C3      2  UNL2        0.6989
    211 C     -0.2555  -0.9695  -3.2785     C3      2  UNL2        -0.0957
    212 C     -0.4238  -0.8545   3.5176     C3      2  UNL2        -0.1391
    213 C     -0.0590   0.1210   3.3298     C3      2  UNL2        -0.1043
    214 C     -0.4238  -0.8545   3.5176     C3      2  UNL2        -0.1391
    215 C     -0.3199  -1.6464   3.4513     C3      2  UNL2        -0.2870
    216 C     -0.0711  -2.1052   3.3121     C3      2  UNL2        -0.3565
    217 C      0.0924  -2.5895   3.0755     C3      2  UNL2        -0.3913
    218 C      0.2631  -3.0871   2.7071     C3      2  UNL2        -0.3652
    219 C     -0.4238  -0.8545   3.5176     C3      2  UNL2        -0.1391
    220 C     -1.0200  -3.8317   1.8181     C3      2  UNL2        -0.5043
    221 C     -0.5669  -3.9995  -1.3967     C3      2  UNL2        -0.3391
    222 C      0.2014  -3.8306  -1.6270     C3      2  UNL2        -0.3217
    223 C     -1.3878  -3.9380  -1.1553     C3      2  UNL2        -0.3913
    224 C     -1.3110  -3.6199  -1.7696     C3      2  UNL2        -0.4783
    225 C     -1.1302  -3.2758  -2.2458     C3      2  UNL2        -0.2000
    226 C     -0.9221  -2.7983  -2.6836     C3      2  UNL2        -0.2522
    227 C     -0.8461  -3.3677   2.4726     C3      2  UNL2        -0.2870
    228 C     -1.1445  -2.6366   2.9702     C3      2  UNL2        -0.5043
    229 C     -1.2442  -4.2084  -0.3554     C3      2  UNL2        -0.3478
    230 C     -1.0179  -1.6530  -3.1399     C3      2  UNL2        -0.0435
    231 C     -1.4154  -2.3145  -2.8098     C3      2  UNL2        -0.1826
    232 C      0.6485  -2.2083  -2.8852     C3      2  UNL2        -0.1304
    233 C     -0.1169  -2.3631  -2.9707     C3      2  UNL2        -0.2696
    234 C      0.5138  -3.0729  -2.4065     C3      2  UNL2        -0.2783
    235 C     -0.1851  -3.1618  -2.4699     C3      2  UNL2        -0.3913
    236 C      1.0509  -0.5015  -3.3574     C3      2  UNL2        -0.1391
    237 C      0.8825  -0.3865   3.4387     C3      2  UNL2        -0.0522
    238 C      1.2473   0.5890   3.2509     C3      2  UNL2        -0.2087
    239 C      0.8825  -0.3865   3.4387     C3      2  UNL2        -0.0522
    240 C      0.9864  -1.1784   3.3724     C3      2  UNL2        -0.0435
    241 C      0.8825  -0.3865   3.4387     C3      2  UNL2        -0.0522
    242 C      0.1665  -0.0060  -3.2269     C2      2  UNL2        -0.2261
    243 C      0.2884  -1.1850  -3.2188     C3      2  UNL2        -0.0957
    244 C      2.2084  -1.3815  -3.2741     C3      2  UNL2        -0.0261
    245 C      2.0400  -1.2665   3.5220     C3      2  UNL2        0.0538
    246 C      2.4049  -0.2909   3.3343     C3      2  UNL2        -0.0870
    247 C      2.0400  -1.2665   3.5220     C3      2  UNL2        0.0538
    248 C      2.1439  -2.0584   3.4558     C3      2  UNL2        0.0968
    249 C      2.3927  -2.5172   3.3165     C3      2  UNL2        0.1505
    250 C      2.0400  -1.2665   3.5220     C3      2  UNL2        0.0538
    251 C      3.0824  -1.2476   3.3838     C3      2  UNL2        0.0108
    252 C      1.5418  -3.2103  -2.6792     C3      2  UNL2        0.0215
    253 C      3.2745  -1.7937  -3.0467     C1     17  UNL1        -0.0435
    254 C      3.5354  -2.0569   3.1415     C3      2  UNL2        0.1290
    255 C      1.4459  -2.0650  -3.1355     C3     17  UNL1        0.0323
    256 C      1.0484  -2.7265  -2.8054     C2     19  UNL1        -0.0696
    257 C      3.1124  -2.6203  -2.8808     C3     18  UNL1        0.1075
    258 C      2.3470  -2.7751  -2.9663     C3      2  UNL2        0.1183
    259 C      0.0505  -4.1996   1.6299     C3      2  UNL2        -0.2087
    260 C      3.0954  -5.1949   1.6178     C2      2  UNL2        0.3118
    261 C      1.4225  -5.1939  -1.0934     C3      2  UNL2        0.1290
    262 C      4.4452  -4.2126  -1.0903     C3      2  UNL2        0.2796
    263 C      1.6642  -4.3323   2.6997     C3      2  UNL2        0.1075
    264 C      3.7260  -3.6692   2.7041     C3      2  UNL2        0.2581
    265 C      1.3373  -5.4422   0.8654     C3      2  UNL2        0.1935
    266 C      4.6627  -4.3574   0.8652     C3     19  UNL1        0.3011
    267 C      3.1766  -5.4496  -0.2748     C3      2  UNL2        0.3226
    268 C      0.7384  -3.6722  -2.1433     C3      2  UNL2        -0.1913
    269 C      2.8268  -4.3647  -2.1435     C3      2  UNL2        0.2258
    270 C      1.9573  -3.4327   3.1783     C3      2  UNL2        0.0968
    271 C      2.9901  -3.1171   3.1720     C3      2  UNL2        0.2043
    272 C      0.7331  -4.3689   2.2238     C3      2  UNL2        -0.0522
    273 C      0.5621  -4.8995   1.3280     C3     20  UNL2        0.0108
    274 C      2.4996  -4.8942   2.2529     C3      2  UNL2        0.2581
    275 C      3.4638  -4.5838   2.2317     C3      2  UNL2        0.3011
    276 C      2.2616  -5.4438   1.3557     C3      2  UNL2        0.2796
    277 C      3.9298  -4.8862   1.3730     C3     21  UNL2        0.3333
    278 C      3.2228  -5.4460   0.7452     C3      2  UNL2        0.3333
    279 C      1.3106  -5.4525  -0.2314     C3      2  UNL2        0.1720
    280 C      0.5904  -4.9191  -0.7943     C3      2  UNL2        -0.0261
    281 C      2.2458  -5.4540  -0.7932     C3      2  UNL2        0.2581
    282 C      1.0411  -4.5963  -1.6845     C3      2  UNL2        -0.0174
    283 C      2.0579  -4.9063  -1.7092     C3      2  UNL2        0.1828
    284 C      3.9577  -4.8950  -0.7746     C2      2  UNL2        0.3226
    285 C      3.7933  -4.2775  -1.7489     C1      2  UNL2        0.2688
    286 C      2.5357  -3.4841  -2.6283     C2      2  UNL2        0.1720
    287 C      0.8653  -3.4235   2.8468     C3      2  UNL2        -0.1565
    288 C      2.6100  -4.1181   2.8802     C3      2  UNL2        0.2151
    289 C      1.4710  -4.9880   1.9867     C3      2  UNL2        0.1505
    290 C      4.3334  -4.0003   1.9885     C2      2  UNL2        0.2903
    291 C      0.5498  -5.1227   0.3566     C3      2  UNL2        0.0430
    292 C      2.1485  -5.6425   0.3412     C3      2  UNL2        0.2796
    293 C      0.1158  -4.1846  -1.2105     C3      2  UNL2        -0.2783
    294 C      4.1555  -4.9748   0.2966     C2      2  UNL2        0.3333
    295 C      3.1196  -5.1108  -1.2186     C3      2  UNL2        0.2903
    296 C      3.6052  -3.4141  -2.3311     C3      2  UNL2        0.2151
    297 C      1.6304  -4.0892  -2.3115     C3      2  UNL2        0.0538
    298 C      2.7808   0.7991  -3.5425     C3      2  UNL2        -0.6348
    299 C      2.6125   0.9141   3.2536     C3      2  UNL2        -0.4348
    300 C      2.9773   1.8897   3.0658     C3      2  UNL2        -0.7130
    301 C      1.8396   1.3181   3.1067     C3      2  UNL2        -0.4522
    302 C      2.6125   0.9141   3.2536     C3      2  UNL2        -0.4348
    303 C      2.7164   0.1222   3.1873     C3      2  UNL2        -0.2348
    304 C      2.6125   0.9141   3.2536     C3      2  UNL2        -0.4348
    305 C      3.6549   0.9330   3.1154     C3      2  UNL2        -0.5739
    306 C      3.8469   0.3869  -3.3151     C3      2  UNL2        -0.6522
    307 C      1.5741   2.5669   2.5388     C3      2  UNL2        -0.7478
    308 C      1.8965   1.2946  -3.4119     C3      2  UNL2        -0.6435
    309 C      1.6407   2.0045  -3.1448     C3      2  UNL2        -0.7826
    310 C      2.0184   0.1156  -3.4039     C3      2  UNL2        -0.3739
    311 C      2.9194  -0.5945  -3.2347     C3      2  UNL2        -0.2957
    312 C      0.7306   3.4029   1.4739     C3      2  UNL2        -0.8348
    313 C      0.5364   3.4922  -1.4607     C3     22  UNL2        -0.8261
    314 C      0.5364   3.4922  -1.4607     C3     23  UNL2        -0.8261
    315 C      0.6819   3.0139  -2.2053     C2      2  UNL2        -0.8435
    316 C      1.0237   2.8448   2.2034     C3      2  UNL2        -0.7826
    317 C      0.7347   2.1955   2.5808     C1      2  UNL2        -0.6609
    318 C      0.3887   1.4462  -2.9907     C1      2  UNL2        -0.6522
    319 C      4.4401   4.8138   1.4185     C3      2  UNL2        -0.9739
    320 C      1.2505   3.8066   1.4281     C2      2  UNL2        -0.8870
    321 C      6.5568   1.9372   1.3102     C3     24  UNL2        -0.6261
    322 C      6.1360   3.7447  -1.7022     C2      2  UNL2        -0.7826
    323 C      3.6511   2.0110  -3.7016     C1      2  UNL2        -0.8261
    324 C      3.4828   2.1260   3.0945     C1      2  UNL2        -0.7478
    325 C      3.8476   3.1015   2.9067     C3      2  UNL2        -0.8609
    326 C      4.0509   3.6917   2.6151     C3      2  UNL2        -0.9391
    327 C      2.7099   2.5299   2.9476     C3     25  UNL2        -0.7739
    328 C      2.1811   2.9384   2.6627     C3      2  UNL2        -0.8174
    329 C      3.4828   2.1260   3.0945     C3      2  UNL2        -0.7478
    330 C      3.4828   2.1260   3.0945     C3      2  UNL2        -0.7478
    331 C      4.5252   2.1448   2.9563     C3     26  UNL2        -0.7478
    332 C      5.1403   2.2083   2.7040     C1     29  UNL2        -0.7391
    333 C      5.7521   2.1004   2.2989     C2      2  UNL2        -0.6957
    334 C      4.4401   4.8138   1.4185     C2      2  UNL2        -0.9739
    335 C      4.4401   4.8138   1.4185     C3      2  UNL2        -0.9739
    336 C      5.1466   4.3679   1.5744     C3      2  UNL2        -0.9217
    337 C      5.5679   4.0482   1.5453     C3      2  UNL2        -0.8696
    338 C      5.9549   3.6026   1.5216     C3      2  UNL2        -0.8087
    339 C      5.0501   4.9461   0.5718     C3     27  UNL2        -0.8957
    340 C      5.3953   4.8556   0.0752     C3      2  UNL2        -0.8435
    341 C      5.7806   4.5808  -0.5655     C3      2  UNL2        -0.8087
    342 C      4.4401   4.8138   1.4185     C3      2  UNL2        -0.9739
    343 C      4.1129   5.2288   0.6636     C3      2  UNL2        -0.9478
    344 C      3.8579   5.3598   0.2349     C3      2  UNL2        -0.9304
    345 C      3.5845   5.4143  -0.2182     C3      2  UNL2        -0.9130
    346 C      3.2180   5.3681  -0.7493     C2      2  UNL2        -0.9043
    347 C      1.2505   3.8066   1.4281     C3      2  UNL2        -0.8870
    348 C      1.2505   3.8066   1.4281     C2      2  UNL2        -0.8870
    349 C      1.1717   4.2822   0.5308     C2      2  UNL2        -0.8609
    350 C      6.5568   1.9372   1.3102     C3      2  UNL2        -0.6261
    351 C      6.7940   2.4475   0.6696     C3     28  UNL2        -0.6522
    352 C      6.8257   2.8656   0.1486     C3      2  UNL2        -0.6696
    353 C      5.4965   4.2233  -2.0213     C2      2  UNL2        -0.8609
    354 C      4.6029   4.6590  -2.1718     C3      2  UNL2        -0.9304
    355 C      6.4086   2.9559  -1.9116     C3      2  UNL2        -0.7304
    356 C      6.5569   1.8087  -1.9041     C3      2  UNL2        -0.6435
    357 C      6.1360   3.7447  -1.7022     C3      2  UNL2        -0.7826
    358 C      5.5533   3.3908  -2.6931     C3      2  UNL2        -0.8609
    359 C      4.7539   3.0089  -3.3291     C2      2  UNL2        -0.9043
    360 C      2.7365   4.9625  -1.7821     C3     29  UNL2        -0.9391
    361 C      2.0570   4.5742  -1.9578     C1      2  UNL2        -0.9217
    362 C      1.5373   4.0181  -2.1571     C3      2  UNL2        -0.9043
    363 C      1.0776   3.3323  -2.2105     C3      2  UNL2        -0.8870
    364 C      2.7365   4.9625  -1.7821     C2      2  UNL2        -0.9391
    365 C      4.7172   1.5988  -3.4742     C1      2  UNL2        -0.7652
    366 C      6.0739   2.8291   1.8426     C3      2  UNL2        -0.7391
    367 C      5.3787   3.0731   2.3715     C3      2  UNL2        -0.8174
    368 C      4.9782   1.3356   2.7139     C3      2  UNL2        -0.6609
    369 C      1.9197   4.9909  -0.3057     C3      2  UNL2        -0.8783
    370 C      1.7124   4.7571   0.4795     C3      2  UNL2        -0.8870
    371 C      2.6482   5.2806  -0.0609     C3      2  UNL2        -0.9043
    372 C      2.3915   5.0101   0.7995     C3      2  UNL2        -0.9391
    373 C      6.4676   3.7392  -0.7059     C3      2  UNL2        -0.7391
    374 C      6.3010   4.0198  -0.0666     C3      2  UNL2        -0.7565
    375 C      6.0411   4.1741   0.5738     C3      2  UNL2        -0.8000
    376 C      3.7214   5.1447  -1.6230     C1     17  UNL1        -0.9304
    377 C      5.1011   4.7728  -1.5663     C3      2  UNL2        -0.8696
    378 C      4.1844   5.2905  -0.9734     C3     30  UNL3        -0.8957
    379 C      4.9366   5.0658  -0.9136     C3     31  UNL3        -0.8609
    380 C      0.8456   3.6896  -1.4700     C3      2  UNL2        -0.8609
    381 C      1.3283   4.3729  -1.3028     C3     32  UNL3        -0.8609
    382 C      4.0502   4.2803  -2.7916     C3      2  UNL2        -1.0000
    383 C      4.7284   3.8262  -2.9347     C3      2  UNL2        -0.9565
    384 C      5.4546   1.7403  -3.1157     C3      2  UNL2        -0.7391
    385 C      5.9138   1.3439  -2.6673     C3      2  UNL2        -0.6609
    386 C      5.2442   2.4494  -3.2270     C3     33  UNL3        -0.8261
    387 C      6.0248   2.1834  -2.6437     C1     37  UNL3        -0.7304
    388 C      1.9354   2.5503  -3.2385     C1     37  UNL3        -0.8522
    389 C      1.5700   3.1299  -2.8204     C3      2  UNL2        -0.8870
    390 C      2.8887   1.3274  -3.5630     C3      2  UNL2        -0.7391
    391 C      4.5551   0.7722  -3.3083     C3      2  UNL2        -0.6870
    392 C      3.7897   0.6174  -3.3938     C3      2  UNL2        -0.6870
    393 C      7.5811  -0.9927   1.6387     C3     34  UNL3        -0.2087
    394 C      7.1602   0.8148  -1.3738     C3      2  UNL2        -0.4435
    395 C      7.1657  -2.7243  -1.2572     C3      2  UNL2        -0.1043
    396 C      4.6754  -0.9189  -3.3732     C3     35  UNL3        -0.3217
    397 C      4.5070  -0.8039   3.4229     C1      2  UNL2        -0.1913
    398 C      4.8718   0.1716   3.2351     C1      2  UNL2        -0.3913
    399 C      5.0752   0.7618   2.9435     C3      2  UNL2        -0.5130
    400 C      3.7341  -0.4000   3.2760     C3      2  UNL2        -0.2261
    401 C      4.5070  -0.8039   3.4229     C3      2  UNL2        -0.1913
    402 C      4.6109  -1.5959   3.3567     C3      2  UNL2        -0.0783
    403 C      4.8597  -2.0546   3.2174     C3      2  UNL2        -0.0435
    404 C      5.0232  -2.5390   2.9808     C1      2  UNL2        0.0000
    405 C      5.1940  -3.0365   2.6124     C1      2  UNL2        0.0538
    406 C      4.5070  -0.8039   3.4229     C3      2  UNL2        -0.1913
    407 C      5.5494  -0.7851   3.2847     C3      2  UNL2        -0.2261
    408 C      6.1646  -0.7216   3.0324     C3     36  UNL3        -0.2348
    409 C      6.7764  -0.8295   2.6273     C3      2  UNL2        -0.2261
    410 C      6.1709   1.4380   1.9029     C3      2  UNL2        -0.5913
    411 C      6.7610  -2.9152   1.7110     C3      2  UNL2        -0.0609
    412 C      7.1448  -2.2310   1.8410     C3      2  UNL2        -0.1130
    413 C      5.4324  -3.7123   1.7639     C3      2  UNL2        0.1075
    414 C      5.4324  -3.7123   1.7639     C3      2  UNL2        0.1075
    415 C      5.9537  -3.8108   1.1700     C3      2  UNL2        0.0538
    416 C      6.3208  -3.7536   0.7334     C3      2  UNL2        0.0215
    417 C      6.7065  -3.5556   0.3438     C2      2  UNL2        -0.0174
    418 C      7.0019  -3.3005  -0.1869     C3      2  UNL2        -0.0522
    419 C      7.5811  -0.9927   1.6387     C3      2  UNL2        -0.2087
    420 C      7.8183  -0.4824   0.9980     C3      2  UNL2        -0.2522
    421 C      7.8500  -0.0643   0.4770     Car     2  UNL2        -0.2870
    422 C      7.8498  -1.4680   0.8141     C3      2  UNL2        -0.1739
    423 C      7.4329   0.0260  -1.5831     C3     37  UNL3        -0.3391
    424 C      7.5812  -1.1212  -1.5757     C3      2  UNL2        -0.2261
    425 C      7.1602   0.8148  -1.3738     C3      2  UNL2        -0.4435
    426 C      4.3639  -3.9490  -1.4913     C3      2  UNL2        0.2473
    427 C      5.1323  -3.7801  -1.7217     C3      2  UNL2        0.0860
    428 C      5.8692  -3.5044  -1.7669     C3      2  UNL2        -0.0087
    429 C      3.8006  -3.2252  -2.3405     C2      2  UNL2        0.1828
    430 C      4.0088  -2.7478  -2.7783     C3      2  UNL2        0.0323
    431 C      7.1657  -2.7243  -1.2572     C2      2  UNL2        -0.1043
    432 C      6.8844  -2.5102  -1.9095     C3      2  UNL2        -0.1217
    433 C      6.5972  -2.1832  -2.4070     C3      2  UNL2        -0.1565
    434 C      5.7415  -1.3311  -3.1458     Car     2  UNL2        -0.2522
    435 C      6.2179  -2.8205   2.3222     Car     2  UNL2        -0.0435
    436 C      6.7802  -1.6386   2.5226     Car     2  UNL2        -0.1565
    437 C      6.1203  -2.2541   2.7498     Car     2  UNL2        -0.0870
    438 C      6.0024  -1.5943   3.0424     C3      2  UNL2        -0.1478
    439 C      7.4919   0.8092  -0.3774     C3      2  UNL2        -0.4087
    440 C      7.3252   1.0899   0.2618     C3      2  UNL2        -0.4435
    441 C      7.0653   1.2442   0.9022     C3      2  UNL2        -0.4783
    442 C      7.5573  -2.5353  -0.3242     C3      2  UNL2        -0.1130
    443 C      7.3965  -2.7751   0.4910     C3      2  UNL2        -0.0870
    444 C      6.2260  -3.7926  -0.7469     C2      2  UNL2        0.0108
    445 C      5.2719  -4.1633  -0.7087     C3      2  UNL2        0.1505
    446 C      5.7434  -4.1118  -0.0457     C3      2  UNL2        0.0968
    447 C      7.9229  -1.1860  -0.5840     C3      2  UNL2        -0.2087
    448 C      4.8865   0.1025  -3.2049     C3      2  UNL2        -0.5391
    449 C      6.9381  -1.5860  -2.3389     C3      2  UNL2        -0.2087
    450 C      3.7910  -0.4235  -3.2426     C3      2  UNL2        -0.4348
    451 C      3.9129  -1.6025  -3.2346     C3      2  UNL2        -0.1565
    452 C      3.5154  -2.2640  -2.9045     C3      2  UNL2        0.0215
    453 C      5.5794  -2.1577  -2.9799     C3      2  UNL2        -0.1565
    454 C      6.0790  -2.7259  -2.4358     C3      2  UNL2        -0.1043
    455 C      4.8140  -2.3125  -3.0654     C3      2  UNL2        -0.1043
    456 C      5.4446  -3.0223  -2.5012     C3     42  UNL4        -0.0522
    457 C      4.7458  -3.1113  -2.5646     C2     19  UNL1        0.0108
    458 C     -7.0100  -2.1706   0.8529     C3     42  UNL4        0.9355
    459 C     -6.2054  -3.1107   0.7338     C3      2  UNL2        0.9032
    460 C     -6.7212  -2.7072  -0.1148     C3      2  UNL2        0.9140
    461 C     -3.2976   5.1523  -0.2403     C3      2  UNL2        0.0645
    462 C     -3.6484   4.7873  -1.4395     C3      2  UNL2        0.1075
    463 C     -3.6484   4.7873  -1.4395     C3      2  UNL2        0.1075
    464 C     -2.2515   4.9342  -0.7979     C3      2  UNL2        -0.0870
    465 C     -2.0674  -4.2411   1.3333     C3      2  UNL2        -0.0087
    466 C     -3.0271  -4.4876  -0.1886     C3     38  UNL3        0.2688
    467 C     -3.0271  -4.4876  -0.1886     C3      2  UNL2        0.2688
    468 C     -2.9656  -4.3789   1.1844     C3      2  UNL2        0.2473
    469 C     -0.7275  -4.3719  -0.2437     C3     19  UNL1        -0.2696
    470 C     -0.7275  -4.3719  -0.2437     C1     29  UNL2        -0.2696
    471 C     -0.6661  -4.2632   1.1293     C2      2  UNL2        -0.2696
    472 C      7.0244   1.7360  -0.1338     C3      2  UNL2        -0.5652
    473 C      3.6630   3.6805   2.6917     C3     39  UNL3        -0.9217
    474 C      2.7147   4.4187   2.0806     C3      2  UNL2        -0.9391
    475 C      3.6722   3.3057  -3.4949     C3      2  UNL2        -0.9565
    476 C      2.0504   3.7069  -2.8884     C3      2  UNL2        -0.9304
    477 C      2.6790   2.9986  -3.5052     C3      2  UNL2        -0.8957
    478 C      5.1906  -4.0786   1.1835     C3      2  UNL2        0.1828
    479 C      6.1376  -0.3216   3.0413     C3      2  UNL2        -0.2870
    480 C      5.4287   0.4793   3.0489     C1      2  UNL2        -0.4261
    481 C      6.7895   0.6128   2.2341     C1     12  UNL1        -0.3913
    482 C      7.1335  -0.2643   2.1873     C3     45  UNL4        -0.2783
    483 C      6.5921   0.2129  -2.5767     C3     45  UNL4        -0.4174
    484 C      5.4376   0.1022  -3.1574     C2      2  UNL2        -0.4870
    485 C      6.2509  -0.7455  -3.0219     C2      2  UNL2        -0.3130




































































































































































































































































































































































































































































































