@<TRIPOS>MOLECULE
*****
 453 0 0 0 0
SMALL
GASTEIGER

@<TRIPOS>ATOM
      1 C    -4.0583  -0.1150  -4.0360      C3      1  UNL1        0.6015
      2 C    -5.3369   0.8006   2.3293      C3      2  UNL2        0.9774
      3 C    -4.7375  -0.8388   2.6302      C3      3  UNL3        0.7293
      4 C    -5.2187  -1.3304   2.3488      C3      2  UNL2        0.6617
      5 C    -3.7860  -1.0534   2.6501      C3      2  UNL2        0.6992
      6 C    -3.0129   0.8738  -3.6912      C3      2  UNL2        0.8120
      7 C    -4.7533   2.1005  -3.0123      C3      2  UNL2        0.9925
      8 C    -4.6877   1.5039  -3.4918      C3      4  UNL4        0.8947
      9 C    -5.8920  -0.9602   2.1097      C3      4  UNL4        0.7594
     10 C    -2.5430   0.2441  -3.6596      C3      4  UNL4        0.6842
     11 C    -4.8905   0.4496  -3.8577      C3      2  UNL2        0.7519
     12 C    -5.3140  -1.2241  -3.6227      C3      4  UNL4        0.5714
     13 C    -2.2616   3.6686   1.4366      C2      2  UNL2        0.7068
     14 C    -5.4511   2.6614   1.4462      C2      4  UNL4        0.9549
     15 C    -3.2189   0.9808   3.1126      C3      2  UNL2        0.8421
     16 C    -2.8541   1.9563   2.9248      Car     2  UNL2        0.7970
     17 C    -2.6508   2.5465   2.6332      C3      2  UNL2        0.7669
     18 C    -3.9918   1.3847   2.9657      C3      2  UNL2        0.9098
     19 C    -4.5206   1.7932   2.6808      C3      2  UNL2        0.9323
     20 C    -3.2189   0.9808   3.1126      C3      2  UNL2        0.8421
     21 C    -3.1150   0.1889   3.0463      C3      2  UNL2        0.8045
     22 C    -3.2189   0.9808   3.1126      C3      2  UNL2        0.8421
     23 C    -2.2616   3.6686   1.4366      C3      2  UNL2        0.7068
     24 C    -3.1596   3.6992   1.6013      C3      2  UNL2        0.8195
     25 C    -3.7505   3.5939   1.6558      C3      2  UNL2        0.8722
     26 C    -2.2616   3.6686   1.4366      C2      2  UNL2        0.7068
     27 C    -2.2616   3.6686   1.4366      C3      2  UNL2        0.7068
     28 C    -2.5888   4.0836   0.6817      C3      2  UNL2        0.7594
     29 C    -2.8438   4.2146   0.2530      C3      2  UNL2        0.7970
     30 C    -3.1172   4.2691  -0.2001      C2      2  UNL2        0.8271
     31 C    -3.4837   4.2229  -0.7312      C3      2  UNL2        0.8722
     32 C    -5.4511   2.6614   1.4462      C3      5  UNL5        0.9549
     33 C    -5.4511   2.6614   1.4462      C3      2  UNL2        0.9549
     34 C    -5.5300   3.1370   0.5489      C3      2  UNL2        0.9549
     35 C    -2.0988   3.5139  -2.1537      C3      2  UNL2        0.7669
     36 C    -3.9652   3.8173  -1.7640      C2      2  UNL2        0.9173
     37 C    -4.6447   3.4290  -1.9397      C2      2  UNL2        0.9474
     38 C    -5.1644   2.8729  -2.1390      C2      2  UNL2        0.9850
     39 C    -3.9652   3.8173  -1.7640      C3      2  UNL2        0.9173
     40 C    -3.7914   2.8903  -2.9400      C3      2  UNL2        0.9323
     41 C    -4.2573   2.6336   2.3978      C3      2  UNL2        0.9173
     42 C    -2.9803   3.9995  -1.6049      C3      2  UNL2        0.8496
     43 C    -2.5172   4.1453  -0.9553      C3      2  UNL2        0.7895
     44 C    -5.3734   3.2278  -1.2847      C3      2  UNL2        0.9624
     45 C    -2.8395   1.8873  -3.5153      C3      2  UNL2        0.8647
     46 C    -3.0700   2.6068  -3.2069      C3      2  UNL2        0.8947
     47 C    -2.6515   3.1351  -2.7735      C3      2  UNL2        0.8571
     48 C    -1.9733   2.6810  -2.9166      C3      2  UNL2        0.7669
     49 C    -4.1907   2.0712  -3.2858      C2      2  UNL2        0.9549
     50 C    -4.5712   2.6348  -2.8122      C2      2  UNL2        0.9699
     51 C    -0.9065   3.4860   1.5702      C3      6  UNL6        0.3233
     52 C     0.7894   2.4169  -1.5505      C3      2  UNL2        -0.4481
     53 C    -1.6955   0.6832  -3.5499      C3      2  UNL2        0.6015
     54 C    -1.8638   0.7982   3.2462      C2      2  UNL2        0.4662
     55 C    -1.4990   1.7737   3.0584      C1      2  UNL2        0.3835
     56 C    -1.2957   2.3639   2.7668      C1      2  UNL2        0.3534
     57 C    -2.6367   1.2021   3.0993      C3      2  UNL2        0.7444
     58 C    -1.8638   0.7982   3.2462      C3      2  UNL2        0.4662
     59 C    -1.7599   0.0063   3.1799      C3      2  UNL2        0.4060
     60 C    -1.5111  -0.4525   3.0407      C3      2  UNL2        0.3083
     61 C    -1.8638   0.7982   3.2462      C3      2  UNL2        0.4662
     62 C    -0.8214   0.8170   3.1079      C3      2  UNL2        0.0451
     63 C    -0.2062   0.8805   2.8557      C2      2  UNL2        -0.2662
     64 C    -0.9065   3.4860   1.5702      C1      2  UNL2        0.3233
     65 C    -1.8045   3.5166   1.7349      C3      2  UNL2        0.5789
     66 C    -0.9065   3.4860   1.5702      C3      2  UNL2        0.3233
     67 C     0.2213   2.7204   1.6970      C2      5  UNL5        -0.1234
     68 C     0.6083   2.2749   1.6733      C2      2  UNL2        -0.3766
     69 C    -0.9065   3.4860   1.5702      C2      2  UNL2        0.3233
     70 C    -1.2337   3.9010   0.8153      C2      2  UNL2        0.4511
     71 C    -1.4887   4.0320   0.3866      C3      2  UNL2        0.5338
     72 C    -1.7620   4.0865  -0.0665      C3      5  UNL5        0.6241
     73 C     0.1500   2.8955  -1.8696      C2      5  UNL5        -0.0390
     74 C    -0.7437   3.3313  -2.0201      C3      7  UNL7        0.3459
     75 C     0.7894   2.4169  -1.5505      C3      2  UNL2        -0.4481
     76 C     0.2068   2.0630  -2.5414      C2      4  UNL4        -0.1364
     77 C    -0.5927   1.6811  -3.1774      C2      2  UNL2        0.2556
     78 C     0.0321   1.7453   2.5232      C3      2  UNL2        -0.2338
     79 C     0.9544   2.6921   0.0851      C3      2  UNL2        -0.4091
     80 C    -1.6252   3.8169  -1.4713      C3      2  UNL2        0.6316
     81 C    -0.2455   3.4451  -1.4146      C2      4  UNL4        0.1654
     82 C    -1.1621   3.9627  -0.8217      C2      4  UNL4        0.4737
     83 C    -0.4100   3.7381  -0.7619      C3      8  UNL8        0.2331
     84 C    -1.4843   1.7047  -3.3817      C3      2  UNL2        0.5940
     85 C    -1.7149   2.4242  -3.0733      C3      2  UNL2        0.6842
     86 C    -1.2964   2.9525  -2.6399      C3      2  UNL2        0.5414
     87 C    -0.6182   2.4984  -2.7830      C2      2  UNL2        0.2857
     88 C    -1.2319  -0.4697   3.0500      C3      2  UNL2        0.1880
     89 C    -1.2319  -0.4697   3.0500      C2      9  UNL9        0.1880
     90 C    -1.1280  -1.2616   2.9837      C3     10  UNL1        0.0902
     91 C    -1.2319  -0.4697   3.0500      C3      2  UNL2        0.1880
     92 C    -0.8524   0.4368  -3.5779      C2      2  UNL2        0.3008
     93 C    -1.9260  -1.6723  -4.0946      C3     11  UNL1        0.0301
     94 C    -2.8672  -1.1533   2.5546      C3      2  UNL2        0.6316
     95 C    -1.9904  -2.3492   2.6352      C3      2  UNL2        0.0677
     96 C    -1.7417  -2.8080   2.4960      C3      2  UNL2        -0.0909
     97 C    -1.5782  -3.2923   2.2594      C2      2  UNL2        -0.2338
     98 C    -1.4074  -3.7899   1.8910      C3      2  UNL2        -0.3636
     99 C    -2.6905  -4.5345   1.0020      C3      2  UNL2        -0.1234
    100 C    -1.1689  -4.4656   1.0424      C3      2  UNL2        -0.4286
    101 C    -1.4940  -4.8991   0.2266      C3      2  UNL2        -0.3052
    102 C    -1.1689  -4.4656   1.0424      C3      2  UNL2        -0.4286
    103 C    -2.2374  -4.7023  -2.2128      C3     12  UNL1        -0.1169
    104 C    -1.4691  -4.5334  -2.4431      C3     13  UNL1        -0.2468
    105 C    -0.7321  -4.2578  -2.4883      C1     12  UNL1        -0.3831
    106 C    -2.5926  -3.5011  -3.4997      C3      2  UNL2        -0.0390
    107 C    -0.8599  -2.0845  -3.8672      C2      2  UNL2        -0.2662
    108 C    -2.5166  -4.0705   1.6565      C2      2  UNL2        -0.1429
    109 C    -2.8151  -3.3394   2.1541      C3      2  UNL2        0.0075
    110 C    -2.9147  -4.9112  -1.1716      C3      2  UNL2        -0.0325
    111 C    -2.4661  -5.0334  -0.5310      C3      2  UNL2        -0.1104
    112 C    -2.3038  -4.9339   0.2031      C3      2  UNL2        -0.1688
    113 C    -1.7149  -0.6508  -3.9264      C2     13  UNL1        0.2481
    114 C    -1.9455   0.0687  -3.6180      C2      2  UNL2        0.5489
    115 C    -0.3329  -1.2339  -3.6200      C2      2  UNL2        -0.1688
    116 C    -1.0220  -2.9111  -3.7013      C3      2  UNL2        -0.3506
    117 C    -0.5224  -3.4792  -3.1572      C2      2  UNL2        -0.5000
    118 C    -1.7874  -3.0659  -3.7868      C3      2  UNL2        -0.1818
    119 C    -1.1568  -3.7757  -3.2226      C3      2  UNL2        -0.3506
    120 C    -1.8556  -3.8646  -3.2860      C2     13  UNL1        -0.2013
    121 C    -3.2818  -1.5134  -4.2332      C3      2  UNL2        0.2707
    122 C    -3.4501  -1.3984   2.5629      C2      2  UNL2        0.5940
    123 C    -3.4501  -1.3984   2.5629      C3      2  UNL2        0.5940
    124 C    -4.9438  -2.6685   1.9464      C3     13  UNL1        0.3759
    125 C    -3.3462  -2.1903   2.4966      C3     14  UNL1        0.3534
    126 C    -3.4501  -1.3984   2.5629      C3     15  UNL1        0.5940
    127 C    -5.8761  -3.1616   0.7589      C3      2  UNL2        0.3985
    128 C    -5.3310  -3.6942   0.8778      C3      2  UNL2        0.2707
    129 C    -4.0463  -4.3756   0.8634      C3      9  UNL9        0.1053
    130 C    -6.2631  -3.1474  -0.1313      C2      9  UNL9        0.4511
    131 C    -5.6607  -3.9146  -0.1157      C3      2  UNL2        0.2932
    132 C    -6.1676  -2.4294  -2.5299      C3      2  UNL2        0.5188
    133 C    -5.7516  -3.1889  -2.5826      C3      2  UNL2        0.3609
    134 C    -5.3161  -1.7283  -3.6123      C3      2  UNL2        0.4662
    135 C    -4.7584  -2.0156  -3.8954      C3      9  UNL9        0.3383
    136 C    -3.5932  -4.5434  -2.3514      C3      2  UNL2        0.0677
    137 C    -4.3373  -4.1638  -2.7243      C3     16  UNL1        0.1579
    138 C    -4.1565  -3.8196  -3.2005      C3      2  UNL2        0.1504
    139 C    -3.9484  -3.3422  -3.6383      C3      2  UNL2        0.1504
    140 C    -3.8724  -3.9116   1.5179      C3      2  UNL2        0.1203
    141 C    -4.7199  -3.5686   1.5087      C3      2  UNL2        0.2256
    142 C    -4.1708  -3.1805   2.0155      C3      2  UNL2        0.2406
    143 C    -4.2705  -4.7523  -1.3102      C3      2  UNL2        0.1353
    144 C    -3.8218  -4.8745  -0.6696      C3      2  UNL2        0.0752
    145 C    -3.6596  -4.7750   0.0645      C3      2  UNL2        0.0451
    146 C    -4.6671  -4.6361  -0.5289      C3      2  UNL2        0.1654
    147 C    -4.8504  -4.3878   0.2023      C3      2  UNL2        0.1805
    148 C    -6.2407  -2.9425  -1.9537      C3      2  UNL2        0.4586
    149 C    -6.2035  -3.3214  -1.3192      C3      2  UNL2        0.4135
    150 C    -3.0706  -0.4919  -4.0650      C3      2  UNL2        0.4662
    151 C    -4.1661  -1.0179  -4.1027      C3      2  UNL2        0.4361
    152 C    -4.0442  -2.1969  -4.0946      C3      2  UNL2        0.2406
    153 C    -4.4417  -2.8584  -3.7646      C3      2  UNL2        0.2256
    154 C    -5.0736  -3.1578  -3.2699      C3      2  UNL2        0.2707
    155 C    -5.4414  -2.5045  -3.3383      C3      2  UNL2        0.3759
    156 C    -3.1432  -2.9070  -3.9254      C3      2  UNL2        0.0902
    157 C    -3.2114  -3.7057  -3.4247      C2      2  UNL2        0.0526
    158 C    -7.4366   1.5574   0.6116      C3      2  UNL2        0.7744
    159 C    -7.4755  -1.6715   0.5967      C3      2  UNL2        0.6391
    160 C    -6.1123   2.5210  -2.1032      C3      2  UNL2        0.8797
    161 C    -7.9923  -0.0600  -2.1273      C3      2  UNL2        0.6692
    162 C    -5.2739  -0.0833  -3.8052      C3      2  UNL2        0.7143
    163 C    -5.8384   1.6998   1.6362      C3      2  UNL2        1.0000
    164 C    -7.0829   0.0016   1.6772      C3      2  UNL2        0.7594
    165 C    -6.1478   2.7566  -0.0948      C3      2  UNL2        0.9323
    166 C    -8.2538  -0.0573  -0.1610      C3      2  UNL2        0.6842
    167 C    -7.6808   1.7038  -1.2951      C3      2  UNL2        0.7444
    168 C    -7.6956  -1.8342  -1.3060      C3      2  UNL2        0.6015
    169 C    -6.7654   1.0440  -3.1657      C3      2  UNL2        0.7368
    170 C    -6.7876  -1.1441  -3.1764      C3      2  UNL2        0.6165
    171 C    -6.1846  -0.0059   2.1345      C3      2  UNL2        0.8346
    172 C    -6.7699   1.6065   1.2772      C3      2  UNL2        0.8421
    173 C    -7.4234   0.8227   1.1879      C3      2  UNL2        0.7594
    174 C    -6.9152   2.2300   0.3428      C3      2  UNL2        0.8271
    175 C    -7.9595   0.8039   0.3559      C3      2  UNL2        0.7218
    176 C    -7.7532   1.6117  -0.2693      C3      2  UNL2        0.7519
    177 C    -7.4105  -0.9861   1.1977      C3      2  UNL2        0.6842
    178 C    -6.7929  -1.8407   1.1907      C3      2  UNL2        0.6391
    179 C    -7.9798  -0.9762   0.2906      C3      2  UNL2        0.6617
    180 C    -6.9639  -2.3714   0.2949      C3      2  UNL2        0.5865
    181 C    -7.6930  -1.8559  -0.2872      C3      2  UNL2        0.6165
    182 C    -6.2337   2.7694  -1.2339      C3      2  UNL2        0.8872
    183 C    -6.9477   2.2195  -1.8461      C3      2  UNL2        0.7895
    184 C    -5.5078   2.2279  -2.7336      C3      2  UNL2        0.9323
    185 C    -6.4940   1.9112  -2.7150      C3      2  UNL2        0.7970
    186 C    -8.2725  -0.1750  -1.2593      C3      2  UNL2        0.6692
    187 C    -8.0157   0.7727  -1.7681      C3      2  UNL2        0.6992
    188 C    -7.9869  -0.9483  -1.8261      C3      2  UNL2        0.6391
    189 C    -7.5251   0.3971  -2.7532      C3      2  UNL2        0.6917
    190 C    -7.5519  -0.6761  -2.6879      C3      2  UNL2        0.6466
    191 C    -6.9356  -2.3909  -1.8275      C3      2  UNL2        0.5564
    192 C    -6.4849  -2.0682  -2.7177      C3      2  UNL2        0.5564
    193 C    -6.0067   0.4649  -3.6655      C3      2  UNL2        0.7368
    194 C    -6.0123  -0.6046  -3.6668      C2      2  UNL2        0.6541
    195 C    -6.6607  -0.8954   1.8136      C3      2  UNL2        0.7293
    196 C    -7.7757  -0.1284   0.9621      C3      2  UNL2        0.7068
    197 C    -6.9749   2.4391  -0.6254      C3      2  UNL2        0.8120
    198 C    -8.2046   0.7325  -0.7320      C3      2  UNL2        0.7068
    199 C    -8.1883  -0.9350  -0.6403      C3      2  UNL2        0.6541
    200 C    -7.4943   1.3872  -2.2385      C3      2  UNL2        0.7293
    201 C    -6.9762  -2.5946  -0.6765      C3      2  UNL2        0.5564
    202 C    -7.4102  -1.6565  -2.2437      C3      2  UNL2        0.6015
    203 C    -5.6337   1.4612  -3.3626      C3      2  UNL2        0.8421
    204 C    -6.8684   0.0618  -3.3502      C3      2  UNL2        0.6842
    205 C    -5.8956  -1.5611  -3.3446      C3      2  UNL2        0.5714
    206 C     1.1315   2.1005   1.5286      C3      2  UNL2        -0.5779
    207 C     0.3425  -0.7023  -3.5915      C3      2  UNL2        -0.1883
    208 C     0.1741  -0.5873   3.2046      C3      2  UNL2        -0.4156
    209 C     0.5389   0.3882   3.0168      C3      2  UNL2        -0.6039
    210 C     0.7423   0.9784   2.7252      C3      2  UNL2        -0.6558
    211 C    -0.5988  -0.1834   3.0576      C3      2  UNL2        -0.1234
    212 C     0.1741  -0.5873   3.2046      C3      2  UNL2        -0.4156
    213 C     0.2780  -1.3792   3.1383      C3      2  UNL2        -0.3442
    214 C     0.1741  -0.5873   3.2046      C3      2  UNL2        -0.4156
    215 C     1.2165  -0.5685   3.0663      C3      2  UNL2        -0.6688
    216 C     1.1315   2.1005   1.5286      C3      2  UNL2        -0.5779
    217 C     1.1315   2.1005   1.5286      C3      2  UNL2        -0.5779
    218 C     1.8380   1.6546   1.6845      C3      2  UNL2        -0.8247
    219 C     1.1315   2.1005   1.5286      C3      2  UNL2        -0.5779
    220 C     2.1879   1.5100  -1.9112      C3      2  UNL2        -0.9805
    221 C     1.2943   1.9458  -2.0617      C3      2  UNL2        -0.6883
    222 C     2.2447   0.6775  -2.5830      C3      2  UNL2        -0.8117
    223 C     1.4452   0.2956  -3.2190      C3      2  UNL2        -0.4935
    224 C    -0.5466  -2.3694   2.6572      C3      2  UNL2        -0.1883
    225 C     1.7924   2.0596  -1.4562      C3      2  UNL2        -0.8636
    226 C     1.6279   2.3526  -0.8035      C3      2  UNL2        -0.7468
    227 C     0.5536   0.3192  -3.4233      C3      2  UNL2        -0.2532
    228 C     0.3230   1.0387  -3.1149      C3      2  UNL2        -0.2078
    229 C     0.7415   1.5670  -2.6816      C3      2  UNL2        -0.4416
    230 C     1.4197   1.1129  -2.8246      C3      2  UNL2        -0.6429
    231 C     1.1508  -1.8155  -3.7309      C3      2  UNL2        -0.3506
    232 C     0.9824  -1.7005   3.0652      C3      2  UNL2        -0.4221
    233 C     0.9824  -1.7005   3.0652      C3      2  UNL2        -0.4221
    234 C    -0.5113  -2.9706   2.4487      C3      2  UNL2        -0.2987
    235 C     1.0863  -2.4925   2.9990      C3      2  UNL2        -0.3766
    236 C     1.3351  -2.9512   2.8597      C3      2  UNL2        -0.4026
    237 C     0.9824  -1.7005   3.0652      C3      2  UNL2        -0.4221
    238 C     0.3863  -4.6778   1.3657      C3      2  UNL2        -0.3571
    239 C     0.0952  -4.4660  -2.2220      C3      2  UNL2        -0.3571
    240 C     0.2760  -4.1218  -2.6982      C3      2  UNL2        -0.4156
    241 C     0.4842  -3.6444  -3.1360      C3      2  UNL2        -0.4481
    242 C     0.5602  -4.2138   2.0202      C2      2  UNL2        -0.3701
    243 C    -0.2874  -3.8708   2.0111      C3      2  UNL2        -0.4221
    244 C     0.2617  -3.4827   2.5178      C3      2  UNL2        -0.3506
    245 C    -0.2346  -4.9383  -0.0266      C3      2  UNL2        -0.2857
    246 C    -0.4179  -4.6900   0.7047      C3      2  UNL2        -0.3896
    247 C     1.3619  -0.7941  -3.5627      C3      2  UNL2        -0.3312
    248 C     0.2665  -1.3200  -3.6003      C3      2  UNL2        -0.2532
    249 C     0.3883  -2.4991  -3.5923      C3      2  UNL2        -0.4416
    250 C    -0.0092  -3.1606  -3.2622      C3      2  UNL2        -0.5195
    251 C     1.2894  -3.2091  -3.4231      C3      2  UNL2        -0.3961
    252 C     2.5683  -1.7384  -3.5333      C3      2  UNL2        -0.4351
    253 C     2.4000  -1.6234   3.2628      C1     17  UNL1        -0.5390
    254 C     1.6271  -1.2195   3.1159      C3      2  UNL2        -0.5714
    255 C     2.4000  -1.6234   3.2628      C3     17  UNL1        -0.5390
    256 C     2.5039  -2.4153   3.1965      C2     19  UNL1        -0.4805
    257 C     2.4000  -1.6234   3.2628      C3     18  UNL1        -0.5390
    258 C     3.4424  -1.6046   3.1246      C3      2  UNL2        -0.5714
    259 C     3.6711  -0.7405  -3.1608      C3      2  UNL2        -0.5779
    260 C     2.7794  -0.7169  -3.3651      C2      2  UNL2        -0.5000
    261 C     2.5488   0.0026  -3.0567      C3      2  UNL2        -0.5909
    262 C     2.9674   0.5309  -2.6233      C3      2  UNL2        -0.7662
    263 C     3.6456   0.0768  -2.7664      C3      2  UNL2        -0.6948
    264 C     3.1603  -0.7166   3.2089      C3      2  UNL2        -0.6364
    265 C     3.9146   1.8576   1.5268      C3      2  UNL2        -0.6104
    266 C     5.3753   0.8417  -1.1751      C3     19  UNL1        -0.7468
    267 C     2.3291   1.8404  -1.1688      C3      2  UNL2        -1.0000
    268 C     2.6031   1.0192   2.5706      C3      2  UNL2        -0.7597
    269 C     4.5954   0.3701   2.6042      C3      2  UNL2        -0.5779
    270 C     2.2936   2.0761   0.8396      C3      2  UNL2        -0.7468
    271 C     5.6026   0.9686   0.7430      C3      2  UNL2        -0.6169
    272 C     4.0809   2.0957  -0.3458      C3      2  UNL2        -0.6948
    273 C     3.7473   1.0310  -2.2195      C3     20  UNL2        -0.7857
    274 C     2.8724   0.1683   3.0497      C3      2  UNL2        -0.7078
    275 C     3.8681  -0.1613   3.0665      C3      2  UNL2        -0.6169
    276 C     3.9055  -1.2696   3.0733      C3      2  UNL2        -0.5779
    277 C     3.3268   1.5599   2.1301      C3     21  UNL2        -0.6753
    278 C     4.3077   1.2470   2.1495      C3      2  UNL2        -0.5909
    279 C     4.8066   1.5573   1.2619      C3      2  UNL2        -0.5974
    280 C     4.0651   2.0999   0.6885      C3      2  UNL2        -0.6299
    281 C     5.4558  -0.1513   2.0757      C3      2  UNL2        -0.5130
    282 C     5.6073   0.9959  -0.2909      C3      2  UNL2        -0.7078
    283 C     4.8702   1.5453  -0.8492      C3      2  UNL2        -0.7078
    284 C     4.6875   1.0314  -1.7619      C2      2  UNL2        -0.7468
    285 C     5.3061   0.1520  -1.7899      C1      2  UNL2        -0.8247
    286 C     3.1562   2.0956  -0.8801      C2      2  UNL2        -0.8117
    287 C     2.9337   1.5473  -1.7993      C3      2  UNL2        -0.8896
    288 C     4.7509  -0.5975   2.7589      C3      2  UNL2        -0.5649
    289 C     5.1711   0.7521   1.8855      C3      2  UNL2        -0.5649
    290 C     3.0563   2.2770   0.3127      C2      2  UNL2        -0.7143
    291 C     5.0367   1.6373   0.2677      C3      2  UNL2        -0.6234
    292 C     4.0059   1.7721  -1.2932      C3      2  UNL2        -0.7662
    293 C     4.3735   0.2857  -2.4188      C3      2  UNL2        -0.7403
    294 C     2.8077   0.7807  -2.4282      C2      2  UNL2        -0.8442
    295 C     3.3402  -3.4479  -3.9933      C3      2  UNL2        -0.5260
    296 C     3.3104  -3.2597   3.2040      C3      2  UNL2        -0.4026
    297 C     3.3104  -3.2597   3.2040      C3      2  UNL2        -0.4026
    298 C     2.4081  -3.9490   3.0405      C3      2  UNL2        -0.3636
    299 C     1.6691  -4.6414   2.5429      C3      2  UNL2        -0.3247
    300 C     3.4734  -4.1012   3.1283      C3      2  UNL2        -0.3766
    301 C     3.5862  -4.6250   2.9709      C3      2  UNL2        -0.3896
    302 C     3.7759  -5.1090   2.7270      C3      2  UNL2        -0.4286
    303 C     3.9382  -5.6115   2.3573      C3      2  UNL2        -0.4935
    304 C     3.3104  -3.2597   3.2040      C3      2  UNL2        -0.4026
    305 C     0.8019  -5.1825   1.4349      C3      2  UNL2        -0.3117
    306 C     1.4089  -5.8273   1.4186      C3      2  UNL2        -0.3117
    307 C     2.5783  -6.3944   1.4182      C3      2  UNL2        -0.3636
    308 C     0.3839  -5.1006   0.7698      C3      2  UNL2        -0.3052
    309 C     0.8019  -5.1825   1.4349      C3      2  UNL2        -0.3117
    310 C     0.9630  -5.9919   0.3461      C3      2  UNL2        -0.2662
    311 C     1.3645  -6.3879  -0.6163      C3      2  UNL2        -0.2857
    312 C     4.1201  -6.3869   1.4062      C3      2  UNL2        -0.4221
    313 C     4.1201  -6.3869   1.4062      C3     22  UNL2        -0.4221
    314 C     3.8521  -6.8093   0.5409      C3     23  UNL2        -0.3961
    315 C     3.6207  -6.9547  -0.1789      C2      2  UNL2        -0.3896
    316 C     3.2342  -6.9378  -0.8940      C3      2  UNL2        -0.3961
    317 C     4.1201  -6.3869   1.4062      C1      2  UNL2        -0.4221
    318 C     4.7597  -6.5007   0.6594      C1      2  UNL2        -0.3896
    319 C     5.2061  -6.3627   0.2914      C3      2  UNL2        -0.3831
    320 C     4.6339  -2.4250  -3.6089      C2      2  UNL2        -0.7857
    321 C     0.8392  -5.1648  -2.2904      C3     24  UNL2        -0.2987
    322 C     1.2963  -3.6340  -3.3599      C2      2  UNL2        -0.3961
    323 C     1.8626  -3.9349  -3.6376      C1      2  UNL2        -0.3831
    324 C     3.0786  -6.5543  -2.0632      C1      2  UNL2        -0.4545
    325 C     3.8912  -6.3855  -2.2817      C3      2  UNL2        -0.3766
    326 C     4.6681  -6.1061  -2.3119      C3      2  UNL2        -0.4026
    327 C     2.2151  -6.5003  -1.7951      C3     25  UNL2        -0.3506
    328 C     2.2990  -6.1652  -2.4250      C3      2  UNL2        -0.3766
    329 C     2.4918  -5.8072  -2.9144      C3      2  UNL2        -0.4156
    330 C     2.7082  -5.3118  -3.3655      C3      2  UNL2        -0.4610
    331 C     5.4201  -4.7609  -2.9684      C3     26  UNL2        -0.4416
    332 C     4.5833  -4.0344  -3.7000      C1     29  UNL2        -0.4416
    333 C     1.2458  -4.0288   2.4741      C2      2  UNL2        -0.3636
    334 C     2.7878  -5.9138   2.1007      C2      2  UNL2        -0.3831
    335 C     1.9305  -5.5629   2.1031      C3      2  UNL2        -0.3312
    336 C     2.4912  -5.1683   2.6145      C3      2  UNL2        -0.3506
    337 C     2.2737  -6.7726  -0.9526      C3      2  UNL2        -0.3377
    338 C     2.6548  -6.9028  -0.1448      C3      2  UNL2        -0.3506
    339 C     2.9170  -6.8014   0.6295      C3     27  UNL2        -0.3636
    340 C     1.8947  -6.6653  -0.0890      C3      2  UNL2        -0.3182
    341 C     1.7700  -6.4362   0.6909      C3      2  UNL2        -0.3117
    342 C     1.3186  -6.0282  -1.7749      C3      2  UNL2        -0.2857
    343 C     0.8956  -5.9255  -1.1484      C3      2  UNL2        -0.2597
    344 C     0.3221  -5.2402  -1.0918      C3      2  UNL2        -0.2338
    345 C     0.5264  -5.6430  -0.4598      C3      2  UNL2        -0.2403
    346 C     5.0695  -6.3960  -1.2694      C2      2  UNL2        -0.2727
    347 C     4.1309  -6.7667  -1.2831      C3      2  UNL2        -0.3766
    348 C     4.6166  -6.7289  -0.5438      C2      2  UNL2        -0.3377
    349 C     3.4828  -2.4357  -3.8660      C2      2  UNL2        -0.4935
    350 C     3.2649  -1.6310  -3.5438      C3      2  UNL2        -0.4805
    351 C     4.0743  -1.9044  -3.5930      C3     28  UNL2        -0.5714
    352 C     4.6165  -1.4432  -3.1425      C3      2  UNL2        -0.6883
    353 C     4.3980  -3.3022  -3.8283      C2      2  UNL2        -0.8312
    354 C     5.3381  -3.7398  -3.3530      C3      2  UNL2        -0.4481
    355 C     5.2089  -2.9577  -3.4306      C3      2  UNL2        -0.4286
    356 C     2.4400  -2.9023  -3.8529      C3      2  UNL2        -0.3961
    357 C     2.1590  -2.1596  -3.5780      C3      2  UNL2        -0.4091
    358 C     2.5971  -4.1300  -3.8387      C3      2  UNL2        -0.4351
    359 C     2.1890  -4.8124  -3.4942      C2      2  UNL2        -0.3896
    360 C     1.5363  -5.1250  -2.9845      C3     29  UNL2        -0.3312
    361 C     1.1528  -4.4442  -3.0616      C1      2  UNL2        -0.3506
    362 C     4.3324  -4.7584  -3.5593      C3      2  UNL2        -0.4416
    363 C     4.8786  -5.3165  -2.9937      C3      2  UNL2        -0.4351
    364 C     3.5343  -4.8743  -3.6595      C2      2  UNL2        -0.6494
    365 C     4.2081  -5.6155  -3.0674      C1      2  UNL2        -0.4221
    366 C     3.4755  -5.6998  -3.1373      C3      2  UNL2        -0.6299
    367 C     5.9137  -0.0813   1.6877      C3      2  UNL2        -0.3052
    368 C     8.0305  -2.9579   1.5793      C3      2  UNL2        -0.2273
    369 C     7.6096  -1.1504  -1.4331      C3      2  UNL2        -0.2403
    370 C     7.6151  -4.6895  -1.3165      C3      2  UNL2        -0.2208
    371 C     4.1835  -2.3652   3.2167      C3      2  UNL2        -0.4610
    372 C     5.0603  -3.5610   3.2974      C3      2  UNL2        -0.2922
    373 C     5.3091  -4.0198   3.1581      C3      2  UNL2        -0.3117
    374 C     5.4726  -4.5042   2.9215      C3      2  UNL2        -0.3247
    375 C     5.6433  -5.0017   2.5531      C3      2  UNL2        -0.3247
    376 C     6.6140  -2.6868   2.9731      C1     17  UNL1        -0.2403
    377 C     7.2257  -2.7947   2.5680      C3      2  UNL2        -0.2338
    378 C     5.9137  -0.0813   1.6877      C3     30  UNL3        -0.3052
    379 C     5.9137  -0.0813   1.6877      C3     31  UNL3        -0.3052
    380 C     6.6202  -0.5272   1.8436      C3      2  UNL2        -0.2922
    381 C     7.0415  -0.8469   1.8145      C3     32  UNL3        -0.2727
    382 C     7.4285  -1.2925   1.7907      C3      2  UNL2        -0.2468
    383 C     6.5238   0.0510   0.8409      C3      2  UNL2        -0.3117
    384 C     6.8689  -0.0395   0.3443      C3      2  UNL2        -0.2987
    385 C     7.2542  -0.3143  -0.2963      C3      2  UNL2        -0.2857
    386 C     5.9137  -0.0813   1.6877      C3     33  UNL3        -0.3052
    387 C     7.2103  -4.8804   1.6517      C1     37  UNL3        -0.2597
    388 C     7.5941  -4.1962   1.7816      C1     37  UNL3        -0.2403
    389 C     5.8818  -5.6775   1.7046      C3      2  UNL2        -0.3312
    390 C     5.5567  -6.1109   0.8887      C3      2  UNL2        -0.3636
    391 C     5.8818  -5.6775   1.7046      C3      2  UNL2        -0.3312
    392 C     6.4031  -5.7759   1.1107      C3      2  UNL2        -0.3052
    393 C     6.7702  -5.7188   0.6740      C3     34  UNL3        -0.2857
    394 C     8.0305  -2.9579   1.5793      C3      2  UNL2        -0.2273
    395 C     8.2677  -2.4476   0.9387      C3      2  UNL2        -0.2273
    396 C     8.2993  -2.0295   0.4177      C3     35  UNL3        -0.2273
    397 C     8.2991  -3.4332   0.7548      C1      2  UNL2        -0.2208
    398 C     7.8822  -1.9391  -1.6424      C1      2  UNL2        -0.2208
    399 C     8.0306  -3.0864  -1.6350      C3      2  UNL2        -0.2078
    400 C     7.6096  -1.1504  -1.4331      C3      2  UNL2        -0.2403
    401 C     7.0270  -1.5043  -2.4240      C3      2  UNL2        -0.1753
    402 C     6.2275  -1.8862  -3.0600      C3      2  UNL2        -0.3506
    403 C     6.3186  -5.4696  -1.8262      C3      2  UNL2        -0.2078
    404 C     7.6151  -4.6895  -1.3165      C1      2  UNL2        -0.2208
    405 C     7.3338  -4.4754  -1.9688      C1      2  UNL2        -0.2013
    406 C     7.0465  -4.1484  -2.4663      C3      2  UNL2        -0.1558
    407 C     6.1908  -3.2963  -3.2051      C3      2  UNL2        0.1353
    408 C     7.5475  -2.0660   2.1117      C3     36  UNL3        -0.2338
    409 C     6.8523  -1.8220   2.6406      C3      2  UNL2        -0.2403
    410 C     6.6673  -4.7857   2.2629      C3      2  UNL2        -0.2727
    411 C     7.2296  -3.6038   2.4633      C3      2  UNL2        -0.2403
    412 C     6.5697  -4.2193   2.6905      C3      2  UNL2        -0.2662
    413 C     6.4518  -3.5595   2.9831      C3      2  UNL2        -0.2532
    414 C     7.9412  -1.1559  -0.4367      C3      2  UNL2        -0.2468
    415 C     7.7746  -0.8753   0.2025      C3      2  UNL2        -0.2532
    416 C     7.5147  -0.7210   0.8429      C3      2  UNL2        -0.2662
    417 C     6.4102   0.1707  -0.6444      C2      2  UNL2        -0.2468
    418 C     8.0067  -4.5005  -0.3835      C3      2  UNL2        -0.2338
    419 C     7.8459  -4.7403   0.4317      C3      2  UNL2        -0.2403
    420 C     5.7213  -6.1284  -0.7680      C3      2  UNL2        -0.3247
    421 C     8.3723  -3.1512  -0.6433      Car     2  UNL2        -0.2208
    422 C     5.3359  -1.8627  -3.2643      C3      2  UNL2        -0.4026
    423 C     5.1053  -1.1431  -2.9559      C3     37  UNL3        -0.7792
    424 C     6.9283  -3.1548  -2.8466      C3      2  UNL2        -0.1104
    425 C     7.3874  -3.5512  -2.3982      C3      2  UNL2        -0.1753
    426 C     6.7178  -2.4457  -2.9579      C3      2  UNL2        -0.0649
    427 C     7.4984  -2.7117  -2.3746      C3      2  UNL2        -0.1818
    428 C     6.0288  -4.1229  -3.0392      C3      2  UNL2        0.0977
    429 C     6.5283  -4.6911  -2.4951      C2      2  UNL2        -0.1299
    430 C     5.8940  -4.9875  -2.5605      C3      2  UNL2        -0.0584
    431 C    -3.7693   4.2404  -0.0988      C2      2  UNL2        0.8647
    432 C    -4.8063   3.8898   0.2012      C3      2  UNL2        0.8947
    433 C    -0.5301   3.5495   1.2653      C3      2  UNL2        0.2180
    434 C    -0.5301   3.5495   1.2653      Car     2  UNL2        0.2180
    435 C     0.4974   2.6158   1.4876      Car     2  UNL2        -0.2338
    436 C     0.7073   3.0222   0.4388      Car     2  UNL2        -0.2338
    437 C    -0.5301   3.5495   1.2653      Car     2  UNL2        0.2180
    438 C    -0.7281  -4.7518  -1.6528      C3      2  UNL2        -0.2792
    439 C    -5.2740  -4.3228  -0.5898      C3      2  UNL2        0.2331
    440 C    -5.3641  -3.8306  -2.4126      C3      2  UNL2        0.2707
    441 C    -5.7898  -3.9193  -1.4384      C3      2  UNL2        0.3083
    442 C     1.3978   2.2355   1.2250      C3      2  UNL2        -0.6039
    443 C     1.3978   2.2355   1.2250      C3      2  UNL2        -0.6039
    444 C     1.3978   2.2355   1.2250      C2      2  UNL2        -0.6039
    445 C     1.6457   2.3968  -0.4521      C3      2  UNL2        -0.7208
    446 C     7.5416  -5.2197  -0.5520      C3      2  UNL2        -0.2403
    447 C     6.5195  -5.8474  -1.0363      C3      2  UNL2        -0.2597
    448 C     7.5416  -5.2197  -0.5520      C3      2  UNL2        -0.2403
    449 C     6.1430  -2.4369   3.1920      C3      2  UNL2        -0.2403
    450 C     5.4341  -1.6360   3.1995      C3      2  UNL2        -0.3961
    451 C     4.5126  -2.2529   3.3033      C3      2  UNL2        -0.4675
    452 C     5.9479  -0.3879  -2.2970      C3      2  UNL2        -0.4156
    453 C     6.2033   0.1317  -1.1977      C3      2  UNL2        -0.4416

