@<TRIPOS>MOLECULE
*****
 307 0 0 0 0
SMALL
GASTEIGER
 
@<TRIPOS>ATOM
      1 H    5.4940   0.0358   1.4758   H   0   UNL   0.9811
      2 H    2.6395   0.1512   3.3962   H   0   UNL   0.9434
      3 H    3.0015   1.4090   3.0477   H   0   UNL   0.8679
      4 H    3.1931   2.0120   2.6393   H   0   UNL   0.7925
      5 H    2.6395   0.1512   3.3962   H   0   UNL   0.9434
      6 H    1.8921   0.5135   3.3243   H   0   UNL   0.8868
      7 H    1.6422  -0.5719   3.2638   H   0   UNL   0.9245
      8 H    2.6395   0.1512   3.3962   H   0   UNL   0.9434
      9 H    3.2175  -2.0731   2.5813   H   0   UNL   0.9057
     10 H    2.6395   0.1512   3.3962   H   0   UNL   0.9434
     11 H    4.6581  -0.0094   2.5727   H   0   UNL   1.0000
     12 H    3.6140   2.7419   1.6329   H   0   UNL   0.7170
     13 H    2.7989   2.9056   1.7354   H   0   UNL   0.6038
     14 H    3.6140   2.7419   1.6329   H   0   UNL   0.7170
     15 H    4.4249   2.1709   1.6999   H   0   UNL   0.8302
     16 H    4.1091   2.8464   0.8082   H   0   UNL   0.7358
     17 H    4.6418   2.5758  -0.1810   H   0   UNL   0.7736
     18 H    3.2177   3.1612   0.9835   H   0   UNL   0.5849
     19 H    2.8576   3.3297   0.5548   H   0   UNL   0.4906
     20 H    3.2251  -2.9403   1.5125   H   0   UNL   0.7925
     21 H    4.0104  -2.4722   1.7195   H   0   UNL   0.9057
     22 H    4.5292  -2.0821   1.6804   H   0   UNL   0.9434
     23 H    4.9376  -1.3887   1.8308   H   0   UNL   0.9811
     24 H    3.2251  -2.9403   1.5125   H   0   UNL   0.7925
     25 H    3.2251  -2.9403   1.5125   H   0   UNL   0.7925
     26 H    3.8480  -2.9742   0.8352   H   0   UNL   0.8302
     27 H    4.3835  -2.7328   0.5147   H   0   UNL   0.8868
     28 H    4.8619  -2.3716  -0.0603   H   0   UNL   0.9057
     29 H    5.6735   0.7668   0.6721   H   0   UNL   0.9434
     30 H    5.4940   0.0358   1.4758   H   0   UNL   0.9811
     31 H    5.7275  -0.4870   0.6664   H   0   UNL   0.9623
     32 H    5.7390  -0.7720  -0.0155   H   0   UNL   0.9623
     33 H    4.3479   2.2168  -1.7171   H   0   UNL   0.7736
     34 H    3.6978   2.5176  -1.8964   H   0   UNL   0.6981
     35 H    2.9265   2.7094  -1.9891   H   0   UNL   0.5849
     36 H    5.0767   1.0766  -1.8352   H   0   UNL   0.8868
     37 H    5.2759   0.1732  -1.8437   H   0   UNL   0.9245
     38 H    3.6855   0.9679  -3.0016   H   0   UNL   0.8113
     39 H    2.5551  -2.8110  -1.8997   H   0   UNL   0.6415
     40 H    1.9110  -1.3405  -3.0746   H   0   UNL   0.7358
     41 H    4.7548  -1.5364  -1.9385   H   0   UNL   0.9245
     42 H    4.2898  -1.0174  -2.6502   H   0   UNL   0.9057
     43 H    3.6182  -0.3202  -3.1626   H   0   UNL   0.8491
     44 H    2.3523   2.3389   2.4744   H   0   UNL   0.6792
     45 H    1.8983   1.5374   2.9929   H   0   UNL   0.7925
     46 H    4.9927   0.8813   2.0580   H   0   UNL   0.9434
     47 H    4.4022   0.9606   2.6031   H   0   UNL   0.9434
     48 H    4.0331   1.6193   2.5297   H   0   UNL   0.8868
     49 H    2.4656  -2.5053   2.3023   H   0   UNL   0.7736
     50 H    2.1330  -1.5699   3.0065   H   0   UNL   0.8679
     51 H    4.9086  -0.6939   2.2250   H   0   UNL   1.0000
     52 H    5.1597   1.9592  -0.5115   H   0   UNL   0.8491
     53 H    5.4352   1.5802   0.1714   H   0   UNL   0.8868
     54 H    5.1288   1.8634   0.9015   H   0   UNL   0.8679
     55 H    5.3149  -1.7417  -0.4267   H   0   UNL   0.9434
     56 H    5.3293  -1.5735   0.8200   H   0   UNL   0.9623
     57 H    4.4459  -2.4247  -1.2592   H   0   UNL   0.8679
     58 H    3.6479  -2.9077  -1.2617   H   0   UNL   0.7736
     59 H    2.8814  -3.1930  -1.0653   H   0   UNL   0.6415
     60 H    4.1385  -2.8720  -0.6073   H   0   UNL   0.8302
     61 H    3.5961  -3.1888  -0.1200   H   0   UNL   0.7547
     62 H    5.4692  -0.8186  -1.2745   H   0   UNL   0.9434
     63 H    5.5198   0.7380  -1.2025   H   0   UNL   0.9057
     64 H    5.7435  -0.2964  -0.6872   H   0   UNL   0.9434
     65 H    5.7436   0.5437  -0.5184   H   0   UNL   0.9245
     66 H    2.6800   1.1321  -3.1907   H   0   UNL   0.7358
     67 H    3.4985   1.8057  -2.6699   H   0   UNL   0.7547
     68 H    4.3178  -0.2136  -2.8123   H   0   UNL   0.8868
     69 H    4.7719   0.1258  -2.4540   H   0   UNL   0.9057
     70 H    2.9221  -0.7893  -3.2635   H   0   UNL   0.8113
     71 H    2.7618  -1.5450  -3.0032   H   0   UNL   0.7925
     72 H    0.9603  -0.2612   3.3818   H   0   UNL   0.8868
     73 H    0.8504  -0.1277  -3.4043   H   0   UNL   0.7358
     74 H    0.9603  -0.2612   3.3818   H   0   UNL   0.8868
     75 H    1.2628   0.5975   3.3223   H   0   UNL   0.8679
     76 H    1.4494   1.1101   3.1630   H   0   UNL   0.8302
     77 H    0.3306   0.2856   3.3299   H   0   UNL   0.8868
     78 H    0.9603  -0.2612   3.3818   H   0   UNL   0.8868
     79 H    1.0974   0.8841  -3.2867   H   0   UNL   0.6981
     80 H    0.4089  -1.0526   3.3845   H   0   UNL   0.8113
     81 H    0.4089  -1.0526   3.3845   H   0   UNL   0.8113
     82 H   -0.3385  -0.6903   3.3126   H   0   UNL   0.7925
     83 H    0.4089  -1.0526   3.3845   H   0   UNL   0.8113
     84 H    0.4802  -1.9221   3.3052   H   0   UNL   0.6792
     85 H    0.7430  -2.3463   3.1492   H   0   UNL   0.6415
     86 H    0.9143  -2.7907   2.9137   H   0   UNL   0.5660
     87 H    0.9869  -3.2770   2.5695   H   0   UNL   0.4906
     88 H    0.4089  -1.0526   3.3845   H   0   UNL   0.8113
     89 H    1.3807  -1.1350   3.1812   H   0   UNL   0.8679
     90 H   -0.2318  -4.1284   1.6712   H   0   UNL   0.1698
     91 H    0.9945  -4.1441   1.5007   H   0   UNL   0.3396
     92 H    1.7797  -3.6761   1.7078   H   0   UNL   0.4717
     93 H    2.2986  -3.2860   1.6686   H   0   UNL   0.6038
     94 H    0.9945  -4.1441   1.5007   H   0   UNL   0.3396
     95 H    0.4040  -4.5955   0.0366   H   0   UNL   0.1698
     96 H    0.9945  -4.1441   1.5007   H   0   UNL   0.3396
     97 H   -0.1510  -4.2186  -1.5349   H   0   UNL   0.1509
     98 H    0.3244  -4.0148  -1.9115   H   0   UNL   0.2453
     99 H    0.9116  -3.8373  -2.0319   H   0   UNL   0.3396
    100 H    1.5819  -3.5429  -2.0462   H   0   UNL   0.4340
    101 H   -0.3808  -3.3428  -2.5829   H   0   UNL   0.2642
    102 H   -0.3196  -2.5443  -3.0864   H   0   UNL   0.3962
    103 H    2.0591  -2.2213  -2.6620   H   0   UNL   0.6604
    104 H    1.3875  -1.5240  -3.1743   H   0   UNL   0.6792
    105 H    0.2350  -3.7092   2.2906   H   0   UNL   0.3396
    106 H   -0.0976  -2.7737   2.9948   H   0   UNL   0.4717
    107 H    1.9292  -2.8336   2.4233   H   0   UNL   0.6415
    108 H    0.0191  -4.5247   0.6930   H   0   UNL   0.1321
    109 H    2.2153  -3.6286  -1.2709   H   0   UNL   0.4717
    110 H    1.4173  -4.1115  -1.2734   H   0   UNL   0.3396
    111 H    0.6508  -4.3968  -1.0771   H   0   UNL   0.2264
    112 H    0.6915  -1.9931  -3.2753   H   0   UNL   0.5849
    113 H    0.5311  -2.7489  -3.0150   H   0   UNL   0.4717
    114 H    1.1599  -3.0879  -2.6661   H   0   UNL   0.4528
    115 H   -2.3308  -4.1336  -1.3117   H   0   UNL   0.3871
    116 H   -0.9876  -1.0594   3.3915   H   0   UNL   0.5472
    117 H   -0.9876  -1.0594   3.3915   H   0   UNL   0.5472
    118 H   -1.9849  -1.7825   3.2591   H   0   UNL   0.1321
    119 H   -2.7276  -2.4378   2.7785   H   0   UNL   0.2581
    120 H   -0.9876  -1.0594   3.3915   H   0   UNL   0.5472
    121 H   -0.9163  -1.9289   3.3122   H   0   UNL   0.4340
    122 H   -0.6535  -2.3531   3.1562   H   0   UNL   0.4340
    123 H   -0.4822  -2.7975   2.9207   H   0   UNL   0.3962
    124 H   -0.9876  -1.0594   3.3915   H   0   UNL   0.5472
    125 H   -3.2432  -3.4406   1.5504   H   0   UNL   0.6129
    126 H   -2.7877  -3.7197   1.6538   H   0   UNL   0.4839
    127 H   -2.2468  -3.9478   1.7216   H   0   UNL   0.3226
    128 H   -1.6283  -4.1351   1.6782   H   0   UNL   0.1290
    129 H   -3.6958  -2.9175   1.5524   H   0   UNL   0.7419
    130 H   -4.0225  -2.8770   0.8981   H   0   UNL   0.9032
    131 H   -4.2591  -2.6365   0.3975   H   0   UNL   1.0000
    132 H   -3.6958  -2.9175   1.5524   H   0   UNL   0.7419
    133 H   -0.9925  -4.6023   0.0436   H   0   UNL   0.0968
    134 H   -3.3270  -3.1011  -1.8561   H   0   UNL   0.6129
    135 H   -2.9303  -1.5513  -2.9047   H   0   UNL   0.3226
    136 H   -2.3308  -4.1336  -1.3117   H   0   UNL   0.3871
    137 H   -1.5475  -4.2254  -1.5279   H   0   UNL   0.1613
    138 H   -1.0721  -4.0216  -1.9045   H   0   UNL   0.0377
    139 H   -2.1525  -3.7204  -2.0825   H   0   UNL   0.2258
    140 H   -1.7773  -3.3496  -2.5759   H   0   UNL   0.0323
    141 H   -1.7161  -2.5511  -3.0794   H   0   UNL   0.0943
    142 H   -3.6185  -2.2175   2.1665   H   0   UNL   0.6774
    143 H   -3.1250  -1.8401   2.7311   H   0   UNL   0.3871
    144 H   -1.1615  -3.7160   2.2976   H   0   UNL   0.0943
    145 H   -2.4595  -3.3074   2.3607   H   0   UNL   0.2581
    146 H   -2.0332  -3.0173   2.7569   H   0   UNL   0.0323
    147 H   -1.4941  -2.7805   3.0018   H   0   UNL   0.1509
    148 H   -1.3774  -4.5314   0.7000   H   0   UNL   0.1613
    149 H   -2.0769  -4.3957   0.7967   H   0   UNL   0.3548
    150 H   -3.5513  -3.3503  -1.1987   H   0   UNL   0.7419
    151 H   -4.0213  -2.4854  -1.4001   H   0   UNL   0.8710
    152 H   -4.0415  -2.9376  -0.6990   H   0   UNL   0.9032
    153 H   -3.7636  -3.4339  -0.1743   H   0   UNL   0.8387
    154 H   -0.7457  -4.4036  -1.0701   H   0   UNL   0.0189
    155 H   -2.0593  -1.7958  -3.2352   H   0   UNL   0.0755
    156 H   -2.5129  -2.9992  -2.5731   H   0   UNL   0.2581
    157 H   -2.9878  -2.4621  -2.6042   H   0   UNL   0.3871
    158 H   -0.7050  -1.9999  -3.2683   H   0   UNL   0.4151
    159 H   -0.8654  -2.7557  -3.0080   H   0   UNL   0.2642
    160 H   -1.8632  -0.2687   3.3947   H   0   UNL   0.3019
    161 H   -4.3383  -1.9250   1.4050   H   0   UNL   0.9032
    162 H   -1.9730  -0.1352  -3.3914   H   0   UNL   0.2264
    163 H   -1.8632  -0.2687   3.3947   H   0   UNL   0.3019
    164 H   -1.5607   0.5900   3.3352   H   0   UNL   0.4528
    165 H   -2.4929   0.2781   3.3429   H   0   UNL   0.1132
    166 H   -2.9436   0.5517   3.1959   H   0   UNL  -0.0000
    167 H   -3.3871   0.8372   2.9492   H   0   UNL   0.1935
    168 H   -3.8077   1.1820   2.5639   H   0   UNL   0.3548
    169 H   -2.7851  -0.7825   3.1965   H   0   UNL   0.0645
    170 H   -3.2745  -1.2379   2.8632   H   0   UNL   0.3548
    171 H   -1.8632  -0.2687   3.3947   H   0   UNL   0.3019
    172 H   -0.8646  -0.0564   3.2409   H   0   UNL   0.7170
    173 H   -4.4107   1.6265   1.6304   H   0   UNL   0.6129
    174 H   -4.7810   0.6560   1.6997   H   0   UNL   0.7097
    175 H   -4.8749  -0.4210   1.6123   H   0   UNL   0.8065
    176 H   -4.4107   1.6265   1.6304   H   0   UNL   0.6129
    177 H   -4.3284   2.1514   1.0348   H   0   UNL   0.6452
    178 H   -4.4107   1.6265   1.6304   H   0   UNL   0.6129
    179 H   -4.3383  -1.9250   1.4050   H   0   UNL   0.9032
    180 H   -5.0180  -1.3640   0.1929   H   0   UNL   0.9677
    181 H   -4.3383  -1.9250   1.4050   H   0   UNL   0.9032
    182 H   -4.1126   1.7260  -1.9206   H   0   UNL   0.5484
    183 H   -4.4942   1.1088  -1.9010   H   0   UNL   0.6129
    184 H   -4.8976  -0.7032  -1.4544   H   0   UNL   0.8387
    185 H   -4.1134  -1.9395  -1.7110   H   0   UNL   0.8710
    186 H   -4.7968   0.0210  -1.7872   H   0   UNL   0.7419
    187 H   -4.3186  -0.2766  -2.3765   H   0   UNL   0.6129
    188 H   -3.3350  -0.4650  -3.0458   H   0   UNL   0.2903
    189 H   -4.4947  -0.2892   2.1932   H   0   UNL   0.6452
    190 H   -4.0655  -0.9573   2.4537   H   0   UNL   0.5806
    191 H   -4.0834   0.2191   2.6088   H   0   UNL   0.4839
    192 H   -3.6202  -0.3858   2.9177   H   0   UNL   0.3548
    193 H   -4.7825   1.4129  -1.1311   H   0   UNL   0.7419
    194 H   -4.2979   2.1414  -1.1122   H   0   UNL   0.6452
    195 H   -4.9273   1.5428  -0.2256   H   0   UNL   0.7742
    196 H   -4.4267  -2.0213  -1.0634   H   0   UNL   1.0000
    197 H   -4.7706  -1.7614  -0.5171   H   0   UNL   1.0000
    198 H   -4.1104   0.3976  -2.5536   H   0   UNL   0.5161
    199 H   -3.1231   0.7691  -3.0747   H   0   UNL   0.1290
    200 H   -3.8359   1.0053  -2.6073   H   0   UNL   0.3871
    201 H   -3.3718   1.5969  -2.6132   H   0   UNL   0.2581
    202 H   -3.0027  -1.2730  -2.9524   H   0   UNL   0.3226
    203 H   -3.7055  -1.5391  -2.4378   H   0   UNL   0.6452
    204 H   -4.0089  -0.9154  -2.5072   H   0   UNL   0.6129
    205 H   -0.9952   1.3541   3.3916   H   0   UNL   0.5849
    206 H   -0.6333   2.6119   3.0431   H   0   UNL   0.5283
    207 H   -0.9952   1.3541   3.3916   H   0   UNL   0.5849
    208 H   -1.7426   1.7164   3.3197   H   0   UNL   0.3585
    209 H   -2.2286   1.8292   3.1835   H   0   UNL   0.2075
    210 H   -2.5698   2.1894   2.9564   H   0   UNL   0.1132
    211 H   -2.9533   2.5122   2.6090   H   0   UNL  -0.0000
    212 H   -0.9952   1.3541   3.3916   H   0   UNL   0.5849
    213 H   -0.9240   0.4846   3.3123   H   0   UNL   0.6792
    214 H   -0.9952   1.3541   3.3916   H   0   UNL   0.5849
    215 H   -0.8359   4.1085   1.7308   H   0   UNL   0.2642
    216 H   -1.4946   4.1329   1.7052   H   0   UNL   0.1887
    217 H   -2.3221   3.9177   1.7205   H   0   UNL   0.0755
    218 H   -0.7772   4.5325   0.5501   H   0   UNL   0.1887
    219 H   -1.1626   4.6030   0.0983   H   0   UNL   0.1509
    220 H   -1.6019   4.5551  -0.4210   H   0   UNL   0.1132
    221 H   -3.5895   3.0523   1.5722   H   0   UNL   0.2581
    222 H   -3.9993   2.2827   1.6133   H   0   UNL   0.4839
    223 H   -3.5895   3.0523   1.5722   H   0   UNL   0.2581
    224 H   -3.5491   3.4910   0.9205   H   0   UNL   0.2581
    225 H   -3.5895   3.0523   1.5722   H   0   UNL   0.2581
    226 H   -4.2890   2.5356   0.5372   H   0   UNL   0.5806
    227 H   -0.7082   3.9123  -1.9937   H   0   UNL   0.3019
    228 H   -1.9496   4.1641  -1.4985   H   0   UNL   0.1132
    229 H   -2.5131   3.8517  -1.6855   H   0   UNL   0.0377
    230 H   -2.9708   3.3496  -1.9597   H   0   UNL   0.0323
    231 H   -1.8086   3.4375  -2.4909   H   0   UNL   0.2075
    232 H   -2.7366   3.2328   2.2610   H   0   UNL   0.0377
    233 H   -2.0359   3.4567   2.4099   H   0   UNL   0.1698
    234 H   -1.2825   3.5417   2.4698   H   0   UNL   0.3019
    235 H   -1.7365   2.7402   2.9883   H   0   UNL   0.2830
    236 H   -3.6128   1.8425   2.3173   H   0   UNL   0.3548
    237 H   -1.9107   4.4339   0.7993   H   0   UNL   0.0943
    238 H   -1.1532   4.3492  -1.2906   H   0   UNL   0.1887
    239 H   -0.5788   4.4761  -0.6794   H   0   UNL   0.2075
    240 H   -3.9236   2.7076  -1.3838   H   0   UNL   0.4194
    241 H   -3.4230   3.4219  -1.3142   H   0   UNL   0.1935
    242 H   -3.9297   3.1399  -0.6302   H   0   UNL   0.3871
    243 H   -0.9548   2.3350  -3.1953   H   0   UNL   0.4717
    244 H   -2.0717   1.8037  -3.2316   H   0   UNL   0.2264
    245 H   -3.3022   1.8306  -2.6017   H   0   UNL   0.1935
    246 H   -3.0225   2.4202  -2.6032   H   0   UNL   0.0323
    247 H   -2.4464   2.8311  -2.7147   H   0   UNL   0.1132
    248 H   -0.7127   0.4136  -3.2681   H   0   UNL   0.6792
    249 H    0.4035   1.3544   3.3843   H   0   UNL   0.7736
    250 H    0.7655   2.6121   3.0357   H   0   UNL   0.5849
    251 H    0.9571   3.2152   2.6274   H   0   UNL   0.4906
    252 H    0.4035   1.3544   3.3843   H   0   UNL   0.7736
    253 H   -0.3439   1.7167   3.3124   H   0   UNL   0.6981
    254 H    0.4035   1.3544   3.3843   H   0   UNL   0.7736
    255 H    0.4035   1.3544   3.3843   H   0   UNL   0.7736
    256 H    1.3753   1.2720   3.1810   H   0   UNL   0.8113
    257 H    1.3779   3.9450   1.6209   H   0   UNL   0.3585
    258 H    0.5628   4.1088   1.7235   H   0   UNL   0.3396
    259 H   -0.0959   4.1332   1.6978   H   0   UNL   0.3208
    260 H    1.3779   3.9450   1.6209   H   0   UNL   0.3585
    261 H    2.1888   3.3740   1.6879   H   0   UNL   0.4528
    262 H    0.9816   4.3643   0.9716   H   0   UNL   0.2830
    263 H    0.6215   4.5328   0.5428   H   0   UNL   0.2453
    264 H    0.2361   4.6033   0.0909   H   0   UNL   0.2264
    265 H   -0.2032   4.5554  -0.4283   H   0   UNL   0.2075
    266 H    2.1118   3.4199  -1.7290   H   0   UNL   0.3962
    267 H    1.4617   3.7207  -1.9084   H   0   UNL   0.3585
    268 H    0.6905   3.9126  -2.0010   H   0   UNL   0.3396
    269 H    1.4494   2.1710  -3.0135   H   0   UNL   0.5660
    270 H   -0.4099   3.4378  -2.4982   H   0   UNL   0.3962
    271 H    0.1162   3.5420   2.4625   H   0   UNL   0.4340
    272 H   -0.3378   2.7405   2.9810   H   0   UNL   0.5472
    273 H    1.7970   2.8224   2.5177   H   0   UNL   0.5660
    274 H    0.2455   4.3495  -1.2979   H   0   UNL   0.2642
    275 H    1.2558   4.1787  -1.2651   H   0   UNL   0.2830
    276 H    0.8199   4.4764  -0.6867   H   0   UNL   0.2453
    277 H    0.4439   2.3352  -3.2026   H   0   UNL   0.5660
    278 H    1.2625   3.0088  -2.6818   H   0   UNL   0.4528
    279 H    4.5409  -2.0102  -1.7969   H   0   UNL   0.8868
    280 H    3.9038  -1.7782  -2.5901   H   0   UNL   0.8491
    281 H    3.5388  -2.6256  -1.9806   H   0   UNL   0.7736
    282 H    2.6449  -2.0224  -2.7253   H   0   UNL   0.7547
    283 H    3.4844   3.2241  -0.8226   H   0   UNL   0.5849
    284 H    1.3425  -4.3914   0.5848   H   0   UNL   0.3208
    285 H    2.5299  -3.6497  -0.5538   H   0   UNL   0.5283
    286 H    2.5176  -3.5815   0.7226   H   0   UNL   0.5472
    287 H    1.3425  -4.3914   0.5848   H   0   UNL   0.3208
    288 H    1.4826  -4.1766  -1.0529   H   0   UNL   0.3396
    289 H    2.5299  -3.6497  -0.5538   H   0   UNL   0.5283
    290 H   -2.2248  -4.4596  -0.4569   H   0   UNL   0.4194
    291 H   -2.8687  -4.1334   0.7495   H   0   UNL   0.5484
    292 H   -3.3645  -3.8669  -0.4142   H   0   UNL   0.6774
    293 H   -2.2248  -4.4596  -0.4569   H   0   UNL   0.4194
    294 H   -5.2204   0.2553  -0.8507   H   0   UNL   0.8387
    295 H   -5.2204   0.2553  -0.8507   H   0   UNL   0.8387
    296 H   -5.2204   0.2553  -0.8507   H   0   UNL   0.8387
    297 H   -5.3417  -0.1775   0.4816   H   0   UNL   0.8710
    298 H   -2.1054   4.5197   0.0993   H   0   UNL   0.0566
    299 H   -3.1848   3.9990   0.5178   H   0   UNL   0.1290
    300 H   -2.5687   4.2502  -0.8154   H   0   UNL   0.0189
    301 H   -3.6840   3.5557  -0.1566   H   0   UNL   0.2903
    302 H    1.8100   4.1347   0.8004   H   0   UNL   0.3208
    303 H    1.8100   4.1347   0.8004   H   0   UNL   0.3208
    304 H    1.8100   4.1347   0.8004   H   0   UNL   0.3208
    305 H    1.3817   4.3807  -0.6156   H   0   UNL   0.2642
    306 H    3.5437  -1.7890   2.7231   H   0   UNL   0.9245
    307 H    4.4199  -1.0959   2.5864   H   0   UNL   0.9811
