@<TRIPOS>MOLECULE
*****
 300 0 0 0 0
SMALL
GASTEIGER

@<TRIPOS>ATOM
      1 C     2.4554  -0.0729   3.4052   C3      1  UNL1    -0.0148
      2 C     3.2081  -2.8142   1.7444   C3      2  UNL2    -0.2407
      3 C     5.3097   0.0119   1.8109   C3      3  UNL3    -0.0815
      4 C     4.7869   1.9032  -1.5372   C3      2  UNL2    -0.1296
      5 C     4.8934  -1.9071  -1.3500   C3      2  UNL2    -0.2741
      6 C     2.3999   0.1098  -3.3921   C3      2  UNL2    -0.0222
      7 C     2.7257   0.7339   3.3130   C3      2  UNL2    -0.0148
      8 C     2.8831   1.2648   3.1299   C3      4  UNL4    -0.0333
      9 C     3.0709   1.7829   2.8300   C3      4  UNL4    -0.0444
     10 C     1.8664   0.3655   3.3396   C3      4  UNL4    0.2990
     11 C     2.4554  -0.0729   3.4052   C3      2  UNL2    -0.0148
     12 C     1.7208  -0.6140   3.2741   C3      4  UNL4    0.0928
     13 C     3.0834  -1.9514   2.7108   C2      2  UNL2    -0.3185
     14 C     2.8160   2.9014   1.7388   C2      4  UNL4    0.0309
     15 C     3.9706   2.4488   1.7932   C3      2  UNL2    0.1134
     16 C     4.8864   1.5713   1.7537   Car     2  UNL2    0.0103
     17 C     3.9873   2.8968   0.8713   C3      2  UNL2    0.2784
     18 C     4.3746   2.7672   0.3592   C3      2  UNL2    0.2165
     19 C     3.4390   2.8848   1.4983   C3      2  UNL2    0.1856
     20 C     2.8763   3.2712   0.8249   C3      2  UNL2    0.2371
     21 C     4.0064  -2.3764   1.8536   C3      2  UNL2    -0.1778
     22 C     3.2081  -2.8142   1.7444   C3      2  UNL2    -0.2407
     23 C     2.9057  -3.1765   1.1153   C3      2  UNL2    -0.1259
     24 C     3.8517  -2.9244   0.9913   C3      2  UNL2    -0.0481
     25 C     4.3255  -2.7926   0.3955   C3      2  UNL2    -0.0296
     26 C     4.6438  -2.5609  -0.2833   C2      2  UNL2    -0.1111
     27 C     5.3097   0.0119   1.8109   C3      2  UNL2    -0.0815
     28 C     5.5831   0.5022   1.1710   C3      2  UNL2    0.0412
     29 C     5.6396   0.8363   0.7486   C3      2  UNL2    0.1649
     30 C     5.5768   1.2351   0.3613   C2      2  UNL2    0.2165
     31 C     5.4750   1.4885  -0.2532   C3      2  UNL2    0.1237
     32 C     5.3097   0.0119   1.8109   C3      5  UNL5    -0.0815
     33 C     5.6582  -0.4059   0.9864   C3      2  UNL2    0.0206
     34 C     5.7700  -0.6102   0.1414   C3      2  UNL2    0.1031
     35 C     5.6108  -1.0120  -0.6292   C3      2  UNL2    -0.0556
     36 C     4.7869   1.9032  -1.5372   C2      2  UNL2    -0.1296
     37 C     3.9839   2.3346  -1.9170   C2      2  UNL2    -0.2111
     38 C     2.9543   2.6934  -2.0036   C2      2  UNL2    -0.3630
     39 C     5.0969   1.1843  -1.7376   C3      2  UNL2    -0.1444
     40 C     5.2260   0.4502  -1.8731   C3      2  UNL2    -0.1778
     41 C     5.2362  -0.4225  -1.8636   C3      2  UNL2    -0.2222
     42 C     3.4453   1.0987  -3.0472   C3      2  UNL2    -0.1444
     43 C     4.0362  -0.9696  -2.8278   C3      2  UNL2    -0.3370
     44 C     3.5032  -0.3504  -3.2002   C3      2  UNL2    -0.2111
     45 C     2.2411   2.3276   2.4791   C3      2  UNL2    -0.0815
     46 C     4.3961   1.5140   2.3300   C3      2  UNL2    -0.0481
     47 C     4.3172   0.8477   2.7036   C3      2  UNL2    -0.1185
     48 C     4.7775  -0.6923   2.3639   C3      2  UNL2    -0.1889
     49 C     5.0884   2.0749  -0.4256   C2      2  UNL2    0.0515
     50 C     5.1758   1.9225   0.5739   C2      2  UNL2    0.2474
     51 C     5.1904  -1.8902  -0.5862   C3      6  UNL6    -0.1037
     52 C     5.4777  -1.4986   0.1042   C3      2  UNL2    0.0206
     53 C     5.5457  -1.0779   0.8280   C3      2  UNL2    0.0206
     54 C     5.0515  -2.1399   0.3090   C2      2  UNL2    -0.0037
     55 C     5.1976  -1.6005   1.1564   C1      2  UNL2    -0.0333
     56 C     4.7597  -2.1863   1.1621   C1      2  UNL2    -0.0444
     57 C     3.7308  -2.8783  -1.2461   C3      2  UNL2    -0.5444
     58 C     2.7411  -3.1405  -1.2541   C3      2  UNL2    -0.9704
     59 C     3.1523  -3.2598  -0.6245   C3      2  UNL2    -0.5963
     60 C     3.6826  -3.1560  -0.1145   C3      2  UNL2    -0.2037
     61 C     5.5589  -0.0673  -1.3185   C3      2  UNL2    -0.1222
     62 C     5.7360  -0.3124  -0.7152   C3      2  UNL2    -0.0370
     63 C     5.6515   0.6951  -0.8249   C2      2  UNL2    -0.0296
     64 C     5.8133   0.2919  -0.1271   C1      2  UNL2    0.1134
     65 C     3.3645   1.8605  -2.6826   C3      2  UNL2    -0.1926
     66 C     4.3583  -0.1371  -2.7896   C3      2  UNL2    -0.2593
     67 C     4.7418  -0.6603  -2.3958   C2      5  UNL5    -0.2963
     68 C     3.9153   0.4689  -3.0156   C2      2  UNL2    -0.1926
     69 C     4.5811   0.6992  -2.5315   C2      2  UNL2    -0.2111
     70 C     2.7467  -0.8586  -3.2678   C2      2  UNL2    -0.2074
     71 C     2.6429  -1.6696  -2.9469   C3      2  UNL2    -0.4481
     72 C     1.0019  -0.0000  -3.4064   C3      5  UNL5    0.4948
     73 C     0.8336   0.1150   3.3897   C2      5  UNL5    0.6907
     74 C     0.8336   0.1150   3.3897   C3      7  UNL7    0.6907
     75 C     0.9375  -0.6769   3.3234   C3      2  UNL2    0.3814
     76 C     0.8336   0.1150   3.3897   C2      4  UNL4    0.6907
     77 C     0.2839  -1.2065  -3.4046   C2      2  UNL2    -0.0259
     78 C     0.1156  -1.0915   3.3915   C3      2  UNL2    0.2784
     79 C     0.1156  -1.0915   3.3915   C3      2  UNL2    0.2784
     80 C     0.2195  -1.8834   3.3253   C3      2  UNL2    -0.1593
     81 C     0.4683  -2.3422   3.1860   C2      4  UNL4    -0.3222
     82 C     0.6318  -2.8265   2.9494   C2      4  UNL4    -0.4481
     83 C     0.8025  -3.3241   2.5810   C3      8  UNL8    -0.5037
     84 C     0.1156  -1.0915   3.3915   C3      2  UNL2    0.2784
     85 C     1.1580  -1.0726   3.2533   C3      2  UNL2    -0.0037
     86 C     2.3695  -3.2027   1.6796   C3      2  UNL2    -0.3444
     87 C     1.0410  -3.9998   1.7325   C2      2  UNL2    -0.3593
     88 C     0.7159  -4.4333   0.9166   C3      2  UNL2    -0.1000
     89 C     1.0410  -3.9998   1.7325   C2      9  UNL9    -0.3593
     90 C     1.5623  -4.0983   1.1386   C3     10  UNL1    -0.1593
     91 C    -0.0275  -4.2365  -1.5227   C3      2  UNL2    -0.7481
     92 C     0.7408  -4.0676  -1.7531   C2      2  UNL2    -0.8852
     93 C     1.4778  -3.7920  -1.7983   C3     11  UNL1    -0.9778
     94 C    -0.3827  -3.0353  -2.8097   C3      2  UNL2    -0.6148
     95 C     2.4930  -2.7977  -1.9409   C3      2  UNL2    -1.0000
     96 C     2.2057  -2.4707  -2.4383   C3      2  UNL2    -0.8481
     97 C     1.3500  -1.6187  -3.1772   C2      2  UNL2    -0.3222
     98 C    -0.3066  -3.6047   2.3465   C3      2  UNL2    -0.4185
     99 C     1.8265  -3.1080   2.2908   C3      2  UNL2    -0.4852
    100 C     1.7289  -2.5417   2.7184   C3      2  UNL2    -0.4667
    101 C     1.6110  -1.8819   3.0110   C3      2  UNL2    -0.3185
    102 C    -0.2561  -4.5676   0.1591   C3      2  UNL2    -0.0741
    103 C    -0.0939  -4.4681   0.8931   C3     12  UNL1    -0.0852
    104 C     0.8805  -4.4508  -0.7401   C3     13  UNL1    -0.5889
    105 C    -0.4785  -1.8900  -3.2660   C1     12  UNL1    -0.1889
    106 C     1.1880  -2.4453  -3.0113   C3      2  UNL2    -0.6481
    107 C     1.6875  -3.0134  -2.4672   C2      2  UNL2    -0.9222
    108 C     0.4225  -2.6001  -3.0968   C2      2  UNL2    -0.5889
    109 C     1.0532  -3.3099  -2.5325   C3      2  UNL2    -0.9000
    110 C     0.3543  -3.3988  -2.5960   C3      2  UNL2    -0.8185
    111 C    -1.1125  -1.2132  -3.3976   C3      2  UNL2    0.2474
    112 C    -1.2809  -1.0982   3.3985   C3      2  UNL2    0.4433
    113 C    -1.2809  -1.0982   3.3985   C2     13  UNL1    0.4433
    114 C    -2.7746  -2.3683   2.7821   C2      2  UNL2    -0.0741
    115 C    -1.1770  -1.8902   3.3323   C2      2  UNL2    -0.0111
    116 C    -0.9282  -2.3489   3.1930   C3      2  UNL2    -0.1370
    117 C    -0.7647  -2.8333   2.9564   C2      2  UNL2    -0.2667
    118 C    -0.5940  -3.3308   2.5880   C3      2  UNL2    -0.3704
    119 C    -1.2809  -1.0982   3.3985   C3      2  UNL2    0.4433
    120 C    -3.7069  -2.8615   1.5946   C2     13  UNL1    -0.0519
    121 C    -3.1618  -3.3941   1.7134   C3      2  UNL2    -0.0296
    122 C    -1.8771  -4.0755   1.6990   C2      2  UNL2    -0.0889
    123 C    -4.0939  -2.8472   0.7044   C3      2  UNL2    0.0000
    124 C    -4.4102  -2.2867  -0.2913   C3     13  UNL1    0.2165
    125 C    -0.6806  -4.4400   0.9236   C3     14  UNL1    -0.0667
    126 C    -3.9984  -2.1293  -1.6943   C3     15  UNL1    -0.0037
    127 C    -3.5824  -2.8888  -1.7470   C3      2  UNL2    -0.0370
    128 C    -2.5892  -1.7155  -3.0598   C3      2  UNL2    -0.0222
    129 C    -1.4240  -4.2432  -1.5157   C3      9  UNL9    -0.4407
    130 C    -0.6557  -4.0744  -1.7461   C2      9  UNL9    -0.6741
    131 C    -2.2448  -4.1817  -1.2744   C3      2  UNL2    -0.2444
    132 C    -2.1681  -3.8637  -1.8887   C3      2  UNL2    -0.3000
    133 C    -1.9873  -3.5195  -2.3649   C3      2  UNL2    -0.3222
    134 C    -1.7792  -3.0420  -2.8027   C3      2  UNL2    -0.2926
    135 C    -3.1891  -1.7897   2.6961   C3      9  UNL9    -0.1111
    136 C    -1.7031  -3.6115   2.3535   C3      2  UNL2    -0.1704
    137 C    -2.5507  -3.2685   2.3444   C3     16  UNL1    -0.0889
    138 C    -2.0016  -2.8804   2.8512   C3      2  UNL2    -0.1148
    139 C    -1.6526  -4.5744   0.1661   C3      2  UNL2    -0.0222
    140 C    -1.4904  -4.4749   0.9001   C3      2  UNL2    -0.0074
    141 C    -3.1382  -3.7185  -1.2236   C3      2  UNL2    -0.0889
    142 C    -4.0715  -2.6424  -1.1181   C3      2  UNL2    0.1134
    143 C    -4.0343  -3.0213  -0.4835   C3      2  UNL2    0.1340
    144 C    -0.5160  -4.4576  -0.7331   C3      2  UNL2    -0.4593
    145 C    -1.8750  -1.8968  -3.2590   C3      2  UNL2    -0.0481
    146 C    -2.2725  -2.5583  -2.9289   C3      2  UNL2    -0.1481
    147 C    -2.9044  -2.8577  -2.4343   C3      2  UNL2    -0.1259
    148 C    -3.2722  -2.2044  -2.5026   C3      2  UNL2    -0.0630
    149 C    -0.9740  -2.6068  -3.0898   C3      2  UNL2    -0.3370
    150 C    -1.0422  -3.4056  -2.5890   C3      2  UNL2    -0.5185
    151 C    -4.2221   1.7881   1.7362   C3      2  UNL2    -0.0704
    152 C    -5.0451   0.0938  -1.3016   C3      2  UNL2    0.1237
    153 C    -1.8216  -0.0075  -3.3935   C3      2  UNL2    0.5979
    154 C    -1.9899   0.1075   3.4026   C3      2  UNL2    0.5052
    155 C    -2.7628   0.5114   3.2557   C3      2  UNL2    0.0928
    156 C    -3.2915   0.9199   2.9708   C3      2  UNL2    -0.0519
    157 C    -1.9899   0.1075   3.4026   C2      2  UNL2    0.5052
    158 C    -3.4836  -1.1626   2.7861   C3      2  UNL2    -0.1630
    159 C    -1.8860  -0.6844   3.3363   C3      2  UNL2    0.4433
    160 C    -1.9899   0.1075   3.4026   C3      2  UNL2    0.5052
    161 C    -0.9475   0.1263   3.2644   C3      2  UNL2    1.0000
    162 C    -4.2221   1.7881   1.7362   C3      2  UNL2    -0.0704
    163 C    -4.6474   0.8950   1.8077   C3      2  UNL2    -0.2037
    164 C    -4.7864   0.2790   1.7927   C3      2  UNL2    -0.2630
    165 C    -4.7626  -0.4757   1.7906   C3      2  UNL2    -0.2852
    166 C    -4.2221   1.7881   1.7362   C3      2  UNL2    -0.0704
    167 C    -4.8604   1.4276   0.8974   C3      2  UNL2    -0.0593
    168 C    -4.4159  -1.6558   1.5986   C3      2  UNL2    -0.2037
    169 C    -4.8029  -1.6415   0.7084   C3      2  UNL2    -0.0852
    170 C    -4.3951   1.3138  -1.9023   C3      2  UNL2    0.0928
    171 C    -5.0451   0.0938  -1.3016   C3      2  UNL2    0.1237
    172 C    -4.7074  -0.9236  -1.6902   C3      2  UNL2    -0.0222
    173 C    -4.2914  -1.6830  -1.7429   C3      2  UNL2    -0.0185
    174 C    -4.6780   0.1151  -1.9625   C3      2  UNL2    -0.0407
    175 C    -4.3234  -0.0750  -2.3863   C3      2  UNL2    -0.0741
    176 C    -3.8558  -0.2225  -2.7726   C3      2  UNL2    -0.0667
    177 C    -3.2982  -0.5097  -3.0557   C3      2  UNL2    -0.0185
    178 C    -4.2976  -0.0904   2.4223   C3      2  UNL2    -0.2741
    179 C    -3.8981  -0.5840   2.7001   C3      2  UNL2    -0.2333
    180 C    -5.0495  -0.9774   0.8663   C3      2  UNL2    -0.1407
    181 C    -4.6271   1.6712  -1.1619   C3      2  UNL2    0.2990
    182 C    -5.0004   1.2647  -0.6182   C3      2  UNL2    0.3608
    183 C    -4.7946   1.7926  -0.0457   C3      2  UNL2    0.2784
    184 C    -4.7805  -1.4366  -1.1140   C3      2  UNL2    0.1443
    185 C    -4.7433  -1.8156  -0.4795   C3      2  UNL2    0.2474
    186 C    -2.7059   0.4880  -3.2630   C3      2  UNL2    0.2577
    187 C    -3.5373   0.5318  -2.9304   C3      2  UNL2    -0.0074
    188 C    -2.9617   1.1979  -2.9958   C3      2  UNL2    0.1546
    189 C    -3.9027   1.1114  -2.5123   C3      2  UNL2    0.0000
    190 C    -2.5840  -0.6911  -3.2549   C3      2  UNL2    0.1959
    191 C    -2.9815  -1.3526  -2.9248   C3      2  UNL2    -0.0185
    192 C    -3.6134  -1.6520  -2.4302   C3      2  UNL2    -0.0556
    193 C    -3.9812  -0.9987  -2.4986   C3      2  UNL2    -0.0778
    194 C    -3.5208   2.9959   1.7323   C2      2  UNL2    0.0722
    195 C    -1.1202   1.2002  -3.3974   C3      2  UNL2    0.4021
    196 C    -1.2885   1.3153   3.3987   C3      2  UNL2    0.4536
    197 C    -0.9237   2.2908   3.2109   C3      2  UNL2    -0.0370
    198 C    -0.7204   2.8810   2.9193   C3      2  UNL2    -0.1556
    199 C    -2.0614   1.7192   3.2518   C3      2  UNL2    0.1753
    200 C    -2.5902   2.1277   2.9668   C3      2  UNL2    0.0000
    201 C    -1.2885   1.3153   3.3987   C3      2  UNL2    0.4536
    202 C    -1.1846   0.5233   3.3324   C3      2  UNL2    0.8351
    203 C    -1.2885   1.3153   3.3987   C3      2  UNL2    0.4536
    204 C    -1.2292   4.0336   1.8874   C3      2  UNL2    -0.1333
    205 C    -1.8201   3.9283   1.9419   C3      2  UNL2    -0.1000
    206 C    -0.6584   4.4181   0.9678   C3      2  UNL2    0.0515
    207 C    -0.9134   4.5491   0.5391   C3      2  UNL2    0.2165
    208 C    -1.1868   4.6036   0.0860   C3      2  UNL2    0.0309
    209 C    -1.5533   4.5573  -0.4451   C3      2  UNL2    -0.1370
    210 C    -3.5208   2.9959   1.7323   C3      2  UNL2    0.0722
    211 C    -3.9461   2.1027   1.8038   C3      2  UNL2    -0.0259
    212 C    -3.5208   2.9959   1.7323   C3      2  UNL2    0.0722
    213 C    -3.5996   3.4715   0.8350   C3      2  UNL2    0.2577
    214 C    -4.1591   2.6353   0.8935   C3      2  UNL2    0.1753
    215 C    -2.0348   4.1518  -1.4779   C3      2  UNL2    -0.3074
    216 C    -2.7143   3.7635  -1.6536   C3      2  UNL2    -0.2074
    217 C    -3.2340   3.2073  -1.8529   C3      2  UNL2    -0.1000
    218 C    -3.6937   2.5216  -1.9063   C3      2  UNL2    0.0206
    219 C    -2.0348   4.1518  -1.4779   C3      2  UNL2    -0.3074
    220 C    -1.8610   3.2247  -2.6539   C3      2  UNL2    -0.3000
    221 C    -2.3269   2.9680   2.6839   C3      2  UNL2    -0.0778
    222 C    -2.3798   4.1994   1.1037   C3      2  UNL2    0.1443
    223 C    -1.0499   4.3340  -1.3188   C3      2  UNL2    -0.4222
    224 C    -0.5869   4.4798  -0.6692   C3      2  UNL2    -0.3222
    225 C    -3.9257   2.8789  -1.1658   C3      2  UNL2    0.1340
    226 C    -3.4430   3.5622  -0.9986   C3      2  UNL2    -0.0333
    227 C    -4.2990   2.4725  -0.6222   C3      2  UNL2    0.3196
    228 C    -4.0932   3.0003  -0.0496   C3      2  UNL2    0.2577
    229 C    -0.9091   2.2217  -3.2292   C3      2  UNL2    -0.1296
    230 C    -1.1396   2.9413  -2.9208   C3      2  UNL2    -0.3111
    231 C    -0.7211   3.4696  -2.4874   C3      2  UNL2    -0.4778
    232 C    -2.0045   1.6957  -3.2669   C3      2  UNL2    0.0825
    233 C    -2.8359   1.7396  -2.9343   C3      2  UNL2    0.0515
    234 C    -2.2603   2.4056  -2.9997   C3      2  UNL2    -0.1111
    235 C    -3.2013   2.3192  -2.5162   C3      2  UNL2    -0.0333
    236 C    -2.6409   2.9693  -2.5261   C3      2  UNL2    -0.1741
    237 C     1.0675   4.0034   1.7154   C3      2  UNL2    -0.0741
    238 C     0.2785   1.2005  -3.4048   C3      2  UNL2    0.3299
    239 C     0.1102   1.3155   3.3914   C3      2  UNL2    0.4536
    240 C     0.4750   2.2911   3.2036   C3      2  UNL2    -0.0556
    241 C     0.6783   2.8813   2.9120   C3      2  UNL2    -0.1481
    242 C     0.1102   1.3155   3.3914   C2      2  UNL2    0.4536
    243 C     0.2141   0.5236   3.3251   C3      2  UNL2    0.8660
    244 C     0.1102   1.3155   3.3914   C3      2  UNL2    0.4536
    245 C     1.1526   1.3344   3.2531   C3      2  UNL2    0.2887
    246 C     1.0675   4.0034   1.7154   C3      2  UNL2    -0.0741
    247 C     0.1695   4.0339   1.8801   C3      2  UNL2    -0.1481
    248 C    -0.4214   3.9286   1.9346   C3      2  UNL2    -0.1889
    249 C     1.0675   4.0034   1.7154   C3      2  UNL2    -0.0741
    250 C     1.7740   3.5575   1.8713   C3      2  UNL2    -0.0704
    251 C     2.1953   3.2378   1.8422   C3      2  UNL2    -0.0444
    252 C     1.0675   4.0034   1.7154   C3      2  UNL2    -0.0741
    253 C     0.7403   4.4184   0.9605   C1     17  UNL1    0.1649
    254 C     0.4853   4.5494   0.5318   C3      2  UNL2    0.2062
    255 C     0.2119   4.6039   0.0787   C3     17  UNL1    -0.0370
    256 C    -0.1546   4.5576  -0.4524   C2     19  UNL1    -0.2481
    257 C     2.1240   3.4129  -1.7244   C3     18  UNL1    -0.5778
    258 C     1.2303   3.8486  -1.8749   C3      2  UNL2    -0.5704
    259 C     2.1808   2.5804  -2.3962   C3      2  UNL2    -0.3741
    260 C     1.3813   2.1985  -3.0322   C2      2  UNL2    -0.2111
    261 C    -0.4623   3.2250  -2.6612   C3      2  UNL2    -0.4519
    262 C     2.0061   2.2626   2.6683   C3      2  UNL2    -0.0815
    263 C     2.6685   3.3637   0.8706   C3      2  UNL2    0.2474
    264 C     0.3488   4.3343  -1.3261   C3      2  UNL2    -0.5074
    265 C     1.7285   3.9624  -1.2694   C3      2  UNL2    -0.5926
    266 C     0.8119   4.4801  -0.6765   C3     19  UNL1    -0.3815
    267 C     0.4896   2.2220  -3.2365   C3      2  UNL2    -0.1741
    268 C     0.2591   2.9415  -2.9282   C3      2  UNL2    -0.3704
    269 C     0.6776   3.4699  -2.4948   C3      2  UNL2    -0.5000
    270 C     1.3558   3.0157  -2.6378   C3      2  UNL2    -0.4296
    271 C     1.8716   1.6389  -2.9301   C3      2  UNL2    -0.0963
    272 C    -0.4839   0.5170  -3.2661   C3      2  UNL2    0.8763
    273 C     3.6830  -2.8005  -1.5277   C3     20  UNL2    -0.5852
    274 C     2.5329  -2.3916  -2.4076   C3      2  UNL2    -0.7926
    275 C     4.3539  -1.7696  -2.2510   C3      2  UNL2    -0.4037
    276 C     3.4684  -1.9975  -2.6486   C3      2  UNL2    -0.5000
    277 C     4.5283   2.5189  -0.9665   C3     21  UNL2    -0.0926
    278 C     3.6987   3.1699  -0.7458   C3      2  UNL2    -0.2000
    279 C     2.6099  -3.6172  -0.3243   C3      2  UNL2    -0.5741
    280 C     2.1940  -3.8685   0.8124   C3      2  UNL2    -0.0630
    281 C     1.5879  -4.2448  -0.8086   C3      2  UNL2    -0.6852
    282 C     2.6099  -3.6172  -0.3243   C3      2  UNL2    -0.5741
    283 C    -3.0028  -4.1277   0.5113   C3      2  UNL2    0.1031
    284 C    -2.0735  -4.4795  -0.4920   C2      2  UNL2    -0.1370
    285 C    -2.0735  -4.4795  -0.4920   C1      2  UNL2    -0.1370
    286 C    -3.5186  -3.7242  -0.3373   C2      2  UNL2    0.0309
    287 C    -5.1802   0.9546   0.2560   C3      2  UNL2    0.0928
    288 C    -5.2553   0.3898  -0.6940   C3      2  UNL2    0.3093
    289 C    -5.1387  -0.6599  -0.8497   C3      2  UNL2    0.2371
    290 C    -5.3342  -0.0963   0.5376   C2      2  UNL2    -0.0481
    291 C    -1.9252   4.5419   0.0317   C3      2  UNL2    0.0515
    292 C    -2.9623   4.1913   0.3317   C3      2  UNL2    0.2268
    293 C    -3.5001   3.6764  -0.5900   C3      2  UNL2    0.0412
    294 C     2.5855   3.6379   0.3120   C2      2  UNL2    -0.2037
    295 C     2.4255   3.6756  -0.7595   C3      2  UNL2    -0.6222
    296 C     1.5960   4.3265  -0.5387   C3      2  UNL2    -0.3963
    297 C     3.8111  -0.1526   3.1681   C3      2  UNL2    -0.1667
    298 C     2.9625  -1.2419   3.1905   C3      2  UNL2    -0.2148
    299 C     2.9625  -1.2419   3.1905   C3      2  UNL2    -0.2148
    300 C     4.1480  -1.2590   2.7391   C3      2  UNL2    -0.2296


