@<TRIPOS>MOLECULE
*****
 337 0 0 0 0
SMALL
GASTEIGER

@<TRIPOS>ATOM
      1 C     1.6201  -4.6535   3.8797   C3      1  UNL1   0.6489
      2 C     3.7217  -1.8273   3.9462   C3      2  UNL2   0.6573
      3 C    -0.1731  -4.8068   0.8315   C3      3  UNL3   0.2163
      4 C     0.2784  -1.4738   5.4749   C3      2  UNL2   0.6938
      5 C    -0.0662  -1.0981   5.3338   C3      2  UNL2   0.6657
      6 C    -0.4666  -0.8139   5.1086   C3      2  UNL2   0.6152
      7 C     0.1328  -2.4532   5.4095   C3      2  UNL2   0.6798
      8 C    -0.3484  -2.9449   5.1281   C3      4  UNL4   0.6573
      9 C     1.0843  -2.6679   5.4294   C3      4  UNL4   0.7107
     10 C     1.2501  -3.2136   5.2233   C3      4  UNL4   0.6994
     11 C     1.4955  -3.7907   4.8461   C3      2  UNL2   0.6854
     12 C     3.2985  -0.2679   3.8891   C3      4  UNL4   0.6011
     13 C    -2.0876  -1.4354   3.8223   C2      2  UNL2   0.6489
     14 C    -2.0790  -2.2335   3.8386   C2      4  UNL4   0.6208
     15 C    -1.5186  -3.6173   3.8230   C3      2  UNL2   0.6039
     16 C    -0.9769  -4.1563   3.8386   Car     2  UNL2   0.6096
     17 C    -0.4236  -4.5124   3.8168   C3      2  UNL2   0.6180
     18 C    -1.5186  -3.6173   3.8230   C3      2  UNL2   0.6039
     19 C    -2.3697  -2.7846   1.5424   C3      2  UNL2   0.1685
     20 C     2.4185  -4.2157   3.9889   C3      2  UNL2   0.6629
     21 C     1.6201  -4.6535   3.8797   C3      2  UNL2   0.6489
     22 C     1.3177  -5.0157   3.2506   C3      2  UNL2   0.6152
     23 C     1.0738  -5.1766   2.7376   C3      2  UNL2   0.5787
     24 C     0.7301  -5.2353   2.1868   C3      2  UNL2   0.5225
     25 C     2.2637  -4.7637   3.1267   C3      2  UNL2   0.6236
     26 C     2.7376  -4.6318   2.5309   C2      2  UNL2   0.6011
     27 C     3.0558  -4.4002   1.8520   C3      2  UNL2   0.5618
     28 C     3.7217  -1.8273   3.9462   C3      2  UNL2   0.6573
     29 C     3.9951  -1.3371   3.3063   C3      2  UNL2   0.6292
     30 C     4.0516  -1.0030   2.8839   C2      2  UNL2   0.6208
     31 C     3.9888  -0.6041   2.4966   C3      2  UNL2   0.6208
     32 C     3.8871  -0.3507   1.8821   C3      5  UNL5   0.6657
     33 C     3.7217  -1.8273   3.9462   C3      2  UNL2   0.6573
     34 C     4.0703  -2.2451   3.1218   C3      2  UNL2   0.6348
     35 C     4.1821  -2.4494   2.2767   C3      2  UNL2   0.6152
     36 C     4.0229  -2.8512   1.5061   C2      2  UNL2   0.5702
     37 C     3.6381  -1.3890   0.2622   C2      2  UNL2   0.4888
     38 C     3.6482  -2.2617   0.2718   C2      2  UNL2   0.3876
     39 C    -0.1731  -4.8068   0.8315   C3      2  UNL2   0.2163
     40 C     1.2956  -4.5567   0.1519   C3      2  UNL2   0.1404
     41 C     2.0507  -4.2830   0.1131   C3      2  UNL2   0.1685
     42 C    -0.1731  -4.8068   0.8315   C3      2  UNL2   0.2163
     43 C     2.8082  -0.3252   4.4654   C3      2  UNL2   0.6882
     44 C    -1.5080  -2.8780   4.3691   C3      2  UNL2   0.6236
     45 C    -1.6290  -2.0571   4.4682   C3      2  UNL2   0.6264
     46 C    -1.5352  -1.1976   4.4882   C3      2  UNL2   0.6124
     47 C    -1.0217  -2.5746   4.8890   C3      2  UNL2   0.6376
     48 C    -1.0477  -1.6824   4.9647   C3      2  UNL2   0.6292
     49 C     0.7431  -4.3529   4.4268   C2      2  UNL2   0.6573
     50 C    -0.2207  -3.9188   4.6116   C2      2  UNL2   0.6489
     51 C     3.1896  -2.5315   4.4992   C3      6  UNL6   0.6854
     52 C     2.8378  -3.2752   4.4873   C3      2  UNL2   0.6854
     53 C     2.3931  -2.6007   5.0683   C3      2  UNL2   0.7163
     54 C    -2.5357  -2.2360   2.2005   C2      2  UNL2   0.4466
     55 C    -2.3350  -2.7563   2.9371   C1      2  UNL2   0.5365
     56 C    -2.4310  -2.0934   3.0319   C1      2  UNL2   0.5927
     57 C    -2.4361  -1.4000   2.9374   C3      2  UNL2   0.6657
     58 C    -0.3293  -5.0200   2.3928   C3      2  UNL2   0.5084
     59 C     3.8898  -3.3379   2.2395   C3      2  UNL2   0.6067
     60 C     3.9578  -2.9171   2.9634   C3      2  UNL2   0.6320
     61 C     3.4635  -3.9792   2.4444   C3      2  UNL2   0.6096
     62 C     3.6097  -3.4397   3.2918   C3      2  UNL2   0.6433
     63 C     3.1718  -4.0255   3.2975   C2      2  UNL2   0.6404
     64 C     2.1428  -4.7176   0.8892   C1      2  UNL2   0.3961
     65 C     1.1531  -4.9797   0.8812   C3      2  UNL2   0.3483
     66 C     1.5644  -5.0990   1.5108   C3      2  UNL2   0.4747
     67 C     2.0947  -4.9953   2.0208   C2      5  UNL5   0.5478
     68 C     3.9709  -1.9065   0.8168   C2      2  UNL2   0.5365
     69 C     4.1481  -2.1516   1.4201   C2      2  UNL2   0.5843
     70 C     4.0635  -1.1441   1.3104   C2      2  UNL2   0.6376
     71 C     4.2253  -1.5473   2.0082   C3      2  UNL2   0.6264
     72 C     3.1539  -2.4995  -0.2605   C3      5  UNL5   0.1152
     73 C    -2.0898  -3.5563   2.7992   C2      5  UNL5   0.4803
     74 C    -1.2852  -4.4964   2.6801   C3      7  UNL7   0.4944
     75 C    -1.8010  -4.0929   1.8315   C3      2  UNL2   0.2837
     76 C    -2.3533  -1.0299   3.2218   C2      4  UNL4   0.6770
     77 C     3.4936  -0.7640  -0.1648   C2      2  UNL2   0.3933
     78 C    -2.6401  -1.5316   2.2976   C3      2  UNL2   0.5393
     79 C    -2.7495  -0.7246   2.4181   C3      2  UNL2   0.5730
     80 C     3.8353  -0.8288   0.8270   C3      2  UNL2   0.6489
     81 C    -3.0815  -1.3898   0.9303   C2      4  UNL4   -0.0561
     82 C    -3.1909  -0.5828   1.0509   C2      4  UNL4   0.0702
     83 C     3.3939  -0.6870  -0.5403   C3      8  UNL8   0.2219
     84 C    -2.8833   1.8705   1.6299   C3      2  UNL2   0.0421
     85 C    -3.0222   1.2545   1.6149   C3      2  UNL2   0.1657
     86 C    -2.9985   0.4998   1.6127   C3      2  UNL2   0.2921
     87 C    -3.0963   2.4030   0.7196   C2      2  UNL2   -0.4829
     88 C     2.8484   0.7657  -1.7739   C3      2  UNL2   -0.3333
     89 C     2.7591   2.6962  -0.5756   C2      9  UNL9   -0.1838
     90 C    -3.4999   0.4747   0.0474   C3     10  UNL1   -0.4206
     91 C    -3.2853  -0.0019   0.6885   C3      2  UNL2   -0.0903
     92 C    -3.3947   0.8051   0.8091   C2      2  UNL2   -0.1153
     93 C     3.1901   0.7009  -0.7821   C3     11  UNL1   0.1517
     94 C    -2.8911   3.2512   0.3196   C3      2  UNL2   -0.3458
     95 C     1.9944   3.1893  -2.8108   C3      2  UNL2   -0.8941
     96 C     0.9085   4.3907  -0.5368   C3      2  UNL2   0.2921
     97 C     1.2537   4.3002  -1.0334   C2      2  UNL2   -0.2586
     98 C     1.6390   4.0254  -1.6740   C3      2  UNL2   -0.8879
     99 C    -0.0287   4.6734  -0.4450   C3      2  UNL2   0.0140
    100 C    -0.2837   4.8044  -0.8736   C3      2  UNL2   -0.1651
    101 C    -2.8911   3.2512   0.3196   C3      2  UNL2   -0.3458
    102 C    -3.3163   2.3581   0.3910   C3      2  UNL2   -0.6012
    103 C    -3.4553   1.7421   0.3760   C3     12  UNL1   -0.4860
    104 C    -2.8911   3.2512   0.3196   C3     13  UNL1   -0.3458
    105 C    -2.9699   3.7268  -0.5777   C1     12  UNL1   -0.8972
    106 C    -3.5293   2.8906  -0.5192   C3      2  UNL2   -0.8723
    107 C    -3.9191   2.0436  -1.1908   C2      2  UNL2   -0.8442
    108 C     1.3550   3.6679  -3.1299   C2      2  UNL2   -0.9252
    109 C     0.4613   4.1037  -3.2804   C3      2  UNL2   -0.8598
    110 C     2.2670   2.4006  -3.0201   C3      2  UNL2   -0.8131
    111 C     1.9944   3.1893  -2.8108   C3      2  UNL2   -0.8941
    112 C     1.4118   2.8354  -3.8017   C3      2  UNL2   -0.8847
    113 C    -2.0846   4.0188  -3.0663   C2     13  UNL1   -0.7570
    114 C    -2.6043   3.4627  -3.2656   C2      2  UNL2   -0.8131
    115 C    -1.2313   3.4801  -4.0667   C2      2  UNL2   -0.7975
    116 C    -2.2219   4.4355  -1.4143   C3      2  UNL2   -0.7414
    117 C    -2.4292   4.2017  -0.6290   C2      2  UNL2   -0.5358
    118 C    -1.7501   4.4547  -0.3090   C3      2  UNL2   -0.2804
    119 C     2.3260   3.1838  -1.8144   C3      2  UNL2   -0.7601
    120 C     2.1594   3.4645  -1.1752   C2     13  UNL1   -0.2835
    121 C     0.9595   4.2175  -2.6748   C3      2  UNL2   -0.8941
    122 C     0.7950   4.5105  -2.0221   C2      2  UNL2   -0.8287
    123 C    -3.7184   0.4857  -0.5503   C3      2  UNL2   -0.6137
    124 C    -3.8277   1.2928  -0.4298   C3     13  UNL1   -0.6542
    125 C    -3.2960   3.1343  -2.5786   C3     14  UNL1   -0.8754
    126 C    -2.8133   3.8176  -2.4113   C3     15  UNL1   -0.8411
    127 C    -3.6693   2.7278  -2.0349   C3      2  UNL2   -0.9003
    128 C    -3.4635   3.2556  -1.4624   C3      2  UNL2   -0.9283
    129 C     2.7571   1.1886  -2.0210   C3      9  UNL9   -0.4673
    130 C    -0.0914   3.7249  -3.9002   C2      9  UNL9   -0.8255
    131 C     0.5868   3.2708  -4.0433   C3      2  UNL2   -0.8692
    132 C    -0.9071   4.9168  -1.5501   C3      2  UNL2   -0.4486
    133 C    -1.2578   4.5517  -2.7493   C3      2  UNL2   -0.6604
    134 C    -1.2578   4.5517  -2.7493   C3      2  UNL2   -0.6604
    135 C     1.7630   2.2613  -3.8227   C3      9  UNL9   -0.8474
    136 C    -3.9454   0.6288  -3.7302   C3      2  UNL2   -0.9128
    137 C    -0.7219   0.5275  -5.8220   C3     16  UNL1   -0.8723
    138 C    -3.6630   0.0593  -0.6380   C3      2  UNL2   -0.6199
    139 C    -4.1505   1.1156  -2.2027   C3      2  UNL2   -0.8100
    140 C    -4.0195  -0.5460  -2.7157   C3      2  UNL2   -0.9377
    141 C     1.1236   2.7399  -4.1417   C3      2  UNL2   -0.8629
    142 C     0.2299   3.1756  -4.2922   C3      2  UNL2   -0.8411
    143 C     2.0356   1.4725  -4.0320   C3      2  UNL2   -0.8037
    144 C     2.1839   0.3253  -4.0246   C3      2  UNL2   -0.8411
    145 C     1.7630   2.2613  -3.8227   C3      2  UNL2   -0.8474
    146 C     1.1804   1.9073  -4.8135   C3      2  UNL2   -0.8380
    147 C     0.3809   1.5254  -5.4495   C3      2  UNL2   -0.8692
    148 C    -2.3160   3.0908  -4.0782   C3      2  UNL2   -0.7850
    149 C    -2.8357   2.5346  -4.2775   C3      2  UNL2   -0.7882
    150 C    -3.2954   1.8489  -4.3309   C3      2  UNL2   -0.8162
    151 C    -3.9454   0.6288  -3.7302   C3      2  UNL2   -0.9128
    152 C    -3.6078  -0.3885  -4.1187   C3      2  UNL2   -0.9875
    153 C    -3.5783   0.6501  -4.3910   C3      2  UNL2   -0.9065
    154 C    -3.2237   0.4601  -4.8148   C3      2  UNL2   -0.8972
    155 C    -2.7562   0.3126  -5.2011   C3      2  UNL2   -0.8692
    156 C    -2.1985   0.0253  -5.4842   C3      2  UNL2   -0.8505
    157 C     0.3442   0.1153  -5.5946   C2      2  UNL2   -0.9657
    158 C    -4.1856   0.5006  -2.8130   C3      2  UNL2   -0.8754
    159 C    -4.1644   0.0342  -2.2033   C3      2  UNL2   -0.8442
    160 C    -3.9498  -0.4423  -1.5622   C3      2  UNL2   -0.7788
    161 C    -4.0591   0.3647  -1.4416   C3      2  UNL2   -0.7445
    162 C    -3.5274   2.2062  -3.5904   C3      2  UNL2   -0.8131
    163 C    -3.0447   2.8895  -3.4232   C3      2  UNL2   -0.8255
    164 C    -3.9007   1.7997  -3.0468   C3      2  UNL2   -0.8255
    165 C    -3.6949   2.3276  -2.4742   C3      2  UNL2   -0.8816
    166 C     2.5257   0.2605  -3.0328   C3      2  UNL2   -0.6947
    167 C    -0.5108   1.5490  -5.6538   C3      2  UNL2   -0.8349
    168 C    -0.7413   2.2685  -5.3454   C3      2  UNL2   -0.7944
    169 C    -0.3228   2.7969  -4.9120   C3      2  UNL2   -0.7913
    170 C     0.3554   2.3427  -5.0551   C3      2  UNL2   -0.8162
    171 C     1.0816   0.2568  -5.2361   C3      2  UNL2   -0.9782
    172 C     1.5408  -0.1395  -4.7877   C3      2  UNL2   -0.9782
    173 C     0.8712   0.9659  -5.3474   C3      2  UNL2   -0.9221
    174 C     1.6518   0.6999  -4.7641   C3      2  UNL2   -0.9097
    175 C    -1.4843  -0.1560  -5.6834   C3      2  UNL2   -0.8536
    176 C    -2.8815  -0.4637  -4.9271   C3      2  UNL2   -0.9221
    177 C    -0.8186   1.6569  -5.6434   C3      2  UNL2   -0.8162
    178 C    -2.4404   2.0581  -5.0368   C3      2  UNL2   -0.7788
    179 C    -1.8118   1.3499  -5.6537   C3      2  UNL2   -0.7819
    180 C     1.9636  -2.6596  -3.4898   C3      2  UNL2   -0.7072
    181 C    -0.5267  -0.8543  -5.6058   C3      2  UNL2   -0.8972
    182 C    -3.4915  -0.5678  -0.4196   C3      2  UNL2   -0.5576
    183 C    -3.5080  -2.4883  -1.5039   C3      2  UNL2   -0.7040
    184 C    -3.8243  -1.9278  -2.4995   C3      2  UNL2   -0.7726
    185 C    -2.4841  -3.6841  -2.3693   C3      2  UNL2   -0.6791
    186 C     2.3791  -1.0565  -3.8083   C3      2  UNL2   -0.7352
    187 C    -3.4126  -1.7704  -3.9025   C3      2  UNL2   -0.8629
    188 C    -2.9965  -2.5298  -3.9552   C3      2  UNL2   -0.7570
    189 C    -3.0285  -0.9218  -4.5986   C3      2  UNL2   -0.9533
    190 C    -2.5610  -1.0693  -4.9849   C3      2  UNL2   -0.8879
    191 C    -2.0033  -1.3565  -5.2680   C3      2  UNL2   -0.8224
    192 C    -0.8381  -3.8843  -3.7240   C3      2  UNL2   -0.6262
    193 C    -0.0698  -3.7154  -3.9543   C3      2  UNL2   -0.6324
    194 C     0.6672  -3.4398  -3.9995   C2      2  UNL2   -0.6511
    195 C    -1.6590  -3.8228  -3.4826   C3      2  UNL2   -0.6355
    196 C     1.9636  -2.6596  -3.4898   C3      2  UNL2   -0.7072
    197 C     1.6824  -2.4456  -4.1421   C3      2  UNL2   -0.6978
    198 C     1.3951  -2.1186  -4.6396   C3      2  UNL2   -0.7414
    199 C     0.5394  -1.2665  -5.3784   C3      2  UNL2   -0.8816
    200 C    -3.9904  -0.8812  -2.5967   C3      2  UNL2   -0.9065
    201 C    -3.9692  -1.3476  -1.9871   C3      2  UNL2   -0.7726
    202 C    -3.7546  -1.8242  -1.3460   C3      2  UNL2   -0.6885
    203 C    -3.8639  -1.0171  -1.2254   C3      2  UNL2   -0.6916
    204 C    -1.5154  -4.0932  -2.6827   C3      2  UNL2   -0.6417
    205 C    -2.5524  -3.3595  -3.4318   C3      2  UNL2   -0.6698
    206 C    -3.4856  -2.2834  -3.3263   C3      2  UNL2   -0.7819
    207 C    -2.9850  -3.2224  -2.7589   C3      2  UNL2   -0.6822
    208 C    -3.4484  -2.6624  -2.6918   C3      2  UNL2   -0.7165
    209 C     0.0699  -4.0986  -2.9413   C3      2  UNL2   -0.6324
    210 C     2.7209  -1.1213  -2.8166   C3      2  UNL2   -0.6542
    211 C     1.2768  -1.1250  -5.0199   C3      2  UNL2   -0.8847
    212 C     1.7360  -1.5214  -4.5715   C3      2  UNL2   -0.7882
    213 C     1.0664  -0.4159  -5.1312   C3      2  UNL2   -1.0000
    214 C     1.8470  -0.6819  -4.5479   C3      2  UNL2   -0.8785
    215 C    -1.2891  -1.5379  -5.4672   C3      2  UNL2   -0.7975
    216 C    -2.3186  -2.4988  -4.6425   C3      2  UNL2   -0.7414
    217 C    -2.6864  -1.8455  -4.7109   C3      2  UNL2   -0.8193
    218 C     0.3773  -2.0931  -5.2125   C3      2  UNL2   -0.7726
    219 C     0.8769  -2.6612  -4.6684   C3      2  UNL2   -0.7040
    220 C    -0.3881  -2.2479  -5.2980   C3      2  UNL2   -0.7477
    221 C     0.2426  -2.9577  -4.7338   C3      2  UNL2   -0.6822
    222 C    -2.1619  -3.0269  -4.3318   C3      2  UNL2   -0.6885
    223 C    -1.1051  -3.2367  -4.6964   C3      2  UNL2   -0.6480
    224 C    -1.9167  -2.2347  -5.0308   C3      2  UNL2   -0.7477
    225 C    -0.1696  -2.8425  -4.9374   C3      2  UNL2   -0.6916
    226 C     2.3942  -3.1385  -2.2564   C3      2  UNL2   -0.6916
    227 C    -3.0372  -1.8014   0.8116   C3      2  UNL2   -0.1776
    228 C    -2.6905  -2.9814   0.6197   C3      2  UNL2   -0.3801
    229 C    -2.1454  -3.5140   0.7385   C3      2  UNL2   -0.2835
    230 C    -3.0775  -2.9672  -0.2705   C3      2  UNL2   -0.6417
    231 C    -2.4751  -3.7344  -0.2550   C3      2  UNL2   -0.6231
    232 C    -2.0535  -4.1629  -1.1360   C3      2  UNL2   -0.6573
    233 C     1.5493  -4.1678  -0.2659   C3      2  UNL2   -0.0592
    234 C     1.9350  -3.9698  -0.6555   C3      2  UNL2   -0.2461
    235 C     2.2304  -3.7147  -1.1862   C3      2  UNL2   -0.4579
    236 C     2.8097  -1.5354  -2.5750   C3      2  UNL2   -0.6449
    237 C    -0.4076  -4.3632  -2.4906   C3      2  UNL2   -0.5888
    238 C     0.3607  -4.1943  -2.7210   C3      2  UNL2   -0.6137
    239 C     1.0977  -3.9187  -2.7662   C3      2  UNL2   -0.6573
    240 C    -1.2284  -4.3017  -2.2493   C3      2  UNL2   -0.6199
    241 C     2.3942  -3.1385  -2.2564   C3      2  UNL2   -0.6916
    242 C     2.1129  -2.9244  -2.9088   C2      2  UNL2   -0.7352
    243 C    -3.5386  -1.8265  -0.7538   C3      2  UNL2   -0.6573
    244 C    -3.3240  -2.3030  -0.1126   C3      2  UNL2   -0.5670
    245 C    -3.4334  -1.4960   0.0079   C3      2  UNL2   -0.4642
    246 C    -1.0849  -4.5721  -1.4494   C3      2  UNL2   -0.5452
    247 C    -1.4815  -4.4559  -0.6681   C3      2  UNL2   -0.5234
    248 C    -1.6648  -4.2076   0.0631   C3      2  UNL2   -0.4268
    249 C    -2.5545  -3.7013  -1.5256   C3      2  UNL2   -0.7227
    250 C    -3.0179  -3.1412  -1.4584   C3      2  UNL2   -0.7445
    251 C     2.7858  -2.9496  -1.3235   C3      2  UNL2   -0.4860
    252 C     2.6250  -3.1893  -0.5083   C3      2  UNL2   -0.1495
    253 C     1.4545  -4.2068  -1.7462   C1     17  UNL1   -0.5389
    254 C     0.5004  -4.5775  -1.7080   C3      2  UNL2   -0.4735
    255 C     3.1514  -1.6002  -1.5832   C3     17  UNL1   -0.4081
    256 C    -0.3747  -4.7192  -1.3113   C2     19  UNL1   -0.4393
    257 C    -0.3747  -4.7192  -1.3113   C3     18  UNL1   -0.4393
    258 C    -0.3133  -4.6105   0.0617   C3      2  UNL2   -0.1059
    259 C     2.2184   3.9430   0.7498   C3      2  UNL2   0.8427
    260 C    -1.9302   3.3854   2.4734   C2      2  UNL2   0.9270
    261 C    -2.2718   2.6603   2.6232   C3      2  UNL2   0.4860
    262 C    -1.9302   3.3854   2.4734   C3      2  UNL2   0.9270
    263 C    -1.9029   3.8365   1.7114   C3      2  UNL2   0.7022
    264 C    -2.4624   3.0751   1.8078   C3      2  UNL2   0.4298
    265 C    -2.7425   2.6278   1.4375   C3      2  UNL2   0.2837
    266 C     1.7603   3.7981  -0.5456   C3     19  UNL1   0.0478
    267 C     2.4607   3.3074  -0.2403   C3      2  UNL2   0.2837
    268 C     2.4607   3.3074  -0.2403   C3      2  UNL2   0.2837
    269 C    -1.0773   3.4858   3.1560   C3      2  UNL2   0.8399
    270 C     2.5056   3.5788   1.5854   C3      2  UNL2   1.0000
    271 C     1.4228   3.5110   3.6787   C3      2  UNL2   0.6517
    272 C    -1.7668   2.5038   3.6883   C3      2  UNL2   0.3933
    273 C     3.5396   0.6344   3.5704   C3     20  UNL2   0.3483
    274 C     0.4655   0.8232   5.3547   C3      2  UNL2   0.4860
    275 C    -0.3074   1.2271   5.2078   C3      2  UNL2   0.1742
    276 C    -0.8362   1.6356   4.9229   C3      2  UNL2   0.3652
    277 C     0.4655   0.8232   5.3547   C3     21  UNL2   0.4860
    278 C    -1.0282  -0.4469   4.7382   C3      2  UNL2   0.5197
    279 C     0.5694   0.0313   5.2884   C3      2  UNL2   0.6489
    280 C     0.4655   0.8232   5.3547   C3      2  UNL2   0.4860
    281 C     2.7348   0.7976   4.5591   C3      2  UNL2   0.4803
    282 C     1.4228   3.5110   3.6787   C3      2  UNL2   0.6517
    283 C     0.5248   3.5415   3.8434   C3      2  UNL2   0.6489
    284 C    -0.0661   3.4362   3.8979   C2      2  UNL2   0.6910
    285 C     1.4228   3.5110   3.6787   C1      2  UNL2   0.6517
    286 C     2.1293   3.0651   3.8347   C2      2  UNL2   0.7275
    287 C     2.5506   2.7454   3.8055   C3      2  UNL2   0.4157
    288 C     2.9376   2.2998   3.7818   C3      2  UNL2   0.3680
    289 C     2.0328   3.6433   2.8320   C3      2  UNL2   0.7697
    290 C     2.3780   3.5528   2.3354   C2      2  UNL2   0.8961
    291 C     2.7633   3.2780   1.6947   C3      2  UNL2   0.4775
    292 C     1.4228   3.5110   3.6787   C3      2  UNL2   0.6517
    293 C     1.0956   3.9260   2.9238   C3      2  UNL2   0.7219
    294 C    -1.7668   2.5038   3.6883   C2      2  UNL2   0.3933
    295 C    -2.1920   1.6107   3.7598   C3      2  UNL2   -0.0530
    296 C    -2.3310   0.9947   3.7448   C3      2  UNL2   0.1629
    297 C    -2.3073   0.2400   3.7427   C3      2  UNL2   0.3792
    298 C    -1.7668   2.5038   3.6883   C3      2  UNL2   0.3933
    299 C    -2.4050   2.1432   2.8495   C3      2  UNL2   0.4579
    300 C    -2.7948   1.2962   2.1779   C3      2  UNL2   0.2584
    301 C     3.5396   0.6344   3.5704   C3      2  UNL2   0.3483
    302 C     3.7768   1.1447   2.9298   C3      2  UNL2   0.1938
    303 C     3.8084   1.5628   2.4088   C3      2  UNL2   0.0983
    304 C     3.8082   0.1591   2.7458   C3      2  UNL2   0.4803
    305 C     3.3913   1.6532   0.3487   C3      2  UNL2   0.3062
    306 C    -0.5729   2.4759   4.6399   C3      2  UNL2   0.3933
    307 C     3.0566   1.5263   4.1028   C3      2  UNL2   0.1629
    308 C    -1.8422   0.6252   4.3744   C3      2  UNL2   0.2051
    309 C    -1.4427   0.1317   4.6522   C3      2  UNL2   0.3427
    310 C     2.7386  -0.0115   4.4544   C3      2  UNL2   0.6517
    311 C     1.9609   0.0328   4.9741   C3      2  UNL2   0.7640
    312 C     3.4503   2.4364   1.5543   C3      2  UNL2   0.3736
    313 C     3.2837   2.7170   2.1936   C3     22  UNL2   0.3511
    314 C     3.0238   2.8713   2.8340   C3     23  UNL2   0.3343
    315 C    -2.8087   0.2149   2.1773   C2      2  UNL2   0.4775
    316 C    -2.5941  -0.2617   2.8184   C3      2  UNL2   0.5955
    317 C    -2.7034   0.5453   2.9390   C1      2  UNL2   0.3848
    318 C     3.8814   0.4411   1.3478   C1      2  UNL2   0.5309
    319 C     1.8230   1.1854   5.1296   C3      2  UNL2   0.6264
    320 C     1.1141   1.9863   5.1372   C2      2  UNL2   0.6461
    321 C     0.7323   4.6481   2.2869   C3     24  UNL2   0.6011
    322 C    -0.5493   4.3191   2.7128   C2      2  UNL2   0.6489
    323 C     0.7323   4.6481   2.2869   C1      2  UNL2   0.6011
    324 C     1.9697   4.1207   1.4604   C1      2  UNL2   0.7753
    325 C     0.7323   4.6481   2.2869   C3      2  UNL2   0.6011
    326 C    -0.0660   5.0276   1.1673   C3      2  UNL2   0.4101
    327 C    -0.4167   4.6625  -0.0319   C3     25  UNL2   0.1124
    328 C    -0.4167   4.6625  -0.0319   C3      2  UNL2   0.1124
    329 C    -1.1030   4.6769   1.4673   C3      2  UNL2   0.4663
    330 C     0.9801   4.8094   0.6097   C3      2  UNL2   0.4466
    331 C    -1.6409   4.1620   0.5456   C3     26  UNL2   0.3427
    332 C     3.5328  -3.8403   1.3307   C1     29  UNL2   0.5112
    333 C     3.7537  -2.6298   0.4951   C2      2  UNL2   0.4157
    334 C     3.5328  -3.8403   1.3307   C2      2  UNL2   0.5112
    335 C     3.1816  -3.4371   0.1232   C3      2  UNL2   0.2416
    336 C     2.1418  -1.5038   5.3557   C3      2  UNL2   0.7303
    337 C     1.4330  -0.7029   5.3633   C3      2  UNL2   0.7640
